
     RDKit          3D

 42 45  0  0  0  0  0  0  0  0999 V2000
    8.0764   -5.4063   -0.0190 C   0  0  0  0  0  0  0  0  0  0  0  0
    8.2846   -4.0018    0.0004 O   0  0  0  0  0  0  0  0  0  0  0  0
    7.1643   -3.2481   -0.0008 C   0  0  0  0  0  0  0  0  0  0  0  0
    6.7013   -2.7099    1.1951 C   0  0  0  0  0  0  0  0  0  0  0  0
    5.5470   -1.9341    1.1874 C   0  0  0  0  0  0  0  0  0  0  0  0
    4.8704   -1.7061   -0.0072 C   0  0  0  0  0  0  0  0  0  0  0  0
    3.6677   -0.8952   -0.0052 C   0  0  0  0  0  0  0  0  0  0  0  0
    3.1976   -0.1731    1.0502 C   0  0  0  0  0  0  0  0  0  0  0  0
    2.0521    0.4534    0.6597 N   0  0  0  0  0  0  0  0  0  0  0  0
    1.0838    1.2897    1.1489 C   0  0  0  0  0  0  0  0  0  0  0  0
    1.0207    1.8683    2.5511 C   0  0  0  0  0  0  0  0  0  0  0  0
    0.1004    1.6140    0.2681 C   0  0  0  0  0  0  0  0  0  0  0  0
   -1.0432    2.4751    0.5088 C   0  0  0  0  0  0  0  0  0  0  0  0
   -1.1164    3.1044    1.5280 O   0  0  0  0  0  0  0  0  0  0  0  0
   -2.0387    2.5694   -0.4275 N   0  0  0  0  0  0  0  0  0  0  0  0
   -1.9637    3.5407   -1.4343 C   0  0  0  0  0  0  0  0  0  0  0  0
   -3.0441    3.7504   -2.2851 C   0  0  0  0  0  0  0  0  0  0  0  0
   -2.9345    4.7221   -3.2742 C   0  0  0  0  0  0  0  0  0  0  0  0
   -1.8115    5.4432   -3.4057 N   0  0  0  0  0  0  0  0  0  0  0  0
   -0.7593    5.2555   -2.5950 C   0  0  0  0  0  0  0  0  0  0  0  0
   -0.8073    4.2986   -1.5868 C   0  0  0  0  0  0  0  0  0  0  0  0
    0.4704    0.8079   -1.1851 S   0  0  0  0  0  0  0  0  0  0  0  0
    1.8895    0.0727   -0.6152 C   0  0  0  0  0  0  0  0  0  0  0  0
    2.8225   -0.7281   -1.0573 N   0  0  0  0  0  0  0  0  0  0  0  0
    5.3409   -2.2491   -1.1979 C   0  0  0  0  0  0  0  0  0  0  0  0
    6.4955   -3.0253   -1.1995 C   0  0  0  0  0  0  0  0  0  0  0  0
    8.9602   -5.8743   -0.0165 H   0  0  0  0  0  0  0  0  0  0  0  0
    7.5536   -5.6770    0.7893 H   0  0  0  0  0  0  0  0  0  0  0  0
    7.5690   -5.6567   -0.8435 H   0  0  0  0  0  0  0  0  0  0  0  0
    7.1921   -2.8786    2.0499 H   0  0  0  0  0  0  0  0  0  0  0  0
    5.2033   -1.5402    2.0399 H   0  0  0  0  0  0  0  0  0  0  0  0
    3.6201   -0.1132    1.9546 H   0  0  0  0  0  0  0  0  0  0  0  0
    0.2086    2.4455    2.6372 H   0  0  0  0  0  0  0  0  0  0  0  0
    0.9725    1.1238    3.2169 H   0  0  0  0  0  0  0  0  0  0  0  0
    1.8392    2.4165    2.7226 H   0  0  0  0  0  0  0  0  0  0  0  0
   -2.8191    1.9450   -0.3925 H   0  0  0  0  0  0  0  0  0  0  0  0
   -3.8821    3.2135   -2.1876 H   0  0  0  0  0  0  0  0  0  0  0  0
   -3.7018    4.8849   -3.8943 H   0  0  0  0  0  0  0  0  0  0  0  0
    0.0656    5.8076   -2.7165 H   0  0  0  0  0  0  0  0  0  0  0  0
   -0.0236    4.1578   -0.9817 H   0  0  0  0  0  0  0  0  0  0  0  0
    4.8494   -2.0818   -2.0526 H   0  0  0  0  0  0  0  0  0  0  0  0
    6.8401   -3.4182   -2.0520 H   0  0  0  0  0  0  0  0  0  0  0  0
  1  2  1  0
  2  3  1  0
  3  4  2  0
  4  5  1  0
  5  6  2  0
  6  7  1  0
  7  8  2  0
  8  9  1  0
  9 10  1  0
 10 11  1  0
 10 12  2  0
 12 13  1  0
 13 14  2  0
 13 15  1  0
 15 16  1  0
 16 17  2  0
 17 18  1  0
 18 19  2  0
 19 20  1  0
 20 21  2  0
 21 16  1  0
 12 22  1  0
 22 23  1  0
 23  9  1  0
 23 24  2  0
 24  7  1  0
  6 25  1  0
 25 26  2  0
 26  3  1  0
  1 27  1  0
  1 28  1  0
  1 29  1  0
  4 30  1  0
  5 31  1  0
  8 32  1  0
 11 33  1  0
 11 34  1  0
 11 35  1  0
 15 36  1  0
 17 37  1  0
 18 38  1  0
 20 39  1  0
 21 40  1  0
 25 41  1  0
 26 42  1  0
M  END
$$$$

     RDKit          3D

 42 45  0  0  0  0  0  0  0  0999 V2000
    8.0808   -4.7366    0.1531 C   0  0  0  0  0  0  0  0  0  0  0  0
    7.9617   -3.6694   -0.7760 O   0  0  0  0  0  0  0  0  0  0  0  0
    6.8841   -2.8728   -0.6111 C   0  0  0  0  0  0  0  0  0  0  0  0
    7.0317   -1.6472    0.0295 C   0  0  0  0  0  0  0  0  0  0  0  0
    5.9180   -0.8309    0.1960 C   0  0  0  0  0  0  0  0  0  0  0  0
    4.6756   -1.2450   -0.2751 C   0  0  0  0  0  0  0  0  0  0  0  0
    3.5201   -0.3865   -0.0972 C   0  0  0  0  0  0  0  0  0  0  0  0
    2.6755   -0.4017    0.9717 C   0  0  0  0  0  0  0  0  0  0  0  0
    1.7209    0.5503    0.7725 N   0  0  0  0  0  0  0  0  0  0  0  0
    0.6091    1.0764    1.3752 C   0  0  0  0  0  0  0  0  0  0  0  0
    0.0260    0.6531    2.7114 C   0  0  0  0  0  0  0  0  0  0  0  0
   -0.0070    2.0723    0.6845 C   0  0  0  0  0  0  0  0  0  0  0  0
   -1.1945    2.8080    1.0789 C   0  0  0  0  0  0  0  0  0  0  0  0
   -1.6355    2.6854    2.1881 O   0  0  0  0  0  0  0  0  0  0  0  0
   -1.8119    3.6422    0.1846 N   0  0  0  0  0  0  0  0  0  0  0  0
   -1.4212    3.6395   -1.1607 C   0  0  0  0  0  0  0  0  0  0  0  0
   -1.9155    4.6028   -2.0341 C   0  0  0  0  0  0  0  0  0  0  0  0
   -1.5072    4.5694   -3.3633 C   0  0  0  0  0  0  0  0  0  0  0  0
   -0.6542    3.6292   -3.7952 N   0  0  0  0  0  0  0  0  0  0  0  0
   -0.1668    2.6920   -2.9682 C   0  0  0  0  0  0  0  0  0  0  0  0
   -0.5374    2.6721   -1.6278 C   0  0  0  0  0  0  0  0  0  0  0  0
    0.8898    2.2924   -0.7458 S   0  0  0  0  0  0  0  0  0  0  0  0
    2.0400    1.0903   -0.4122 C   0  0  0  0  0  0  0  0  0  0  0  0
    3.1006    0.5689   -0.9693 N   0  0  0  0  0  0  0  0  0  0  0  0
    4.5380   -2.4727   -0.9139 C   0  0  0  0  0  0  0  0  0  0  0  0
    5.6470   -3.2949   -1.0858 C   0  0  0  0  0  0  0  0  0  0  0  0
    8.9048   -5.2655   -0.0507 H   0  0  0  0  0  0  0  0  0  0  0  0
    8.1431   -4.3664    1.0799 H   0  0  0  0  0  0  0  0  0  0  0  0
    7.2786   -5.3297    0.0841 H   0  0  0  0  0  0  0  0  0  0  0  0
    7.9273   -1.3565    0.3663 H   0  0  0  0  0  0  0  0  0  0  0  0
    6.0098    0.0532    0.6541 H   0  0  0  0  0  0  0  0  0  0  0  0
    2.7442   -1.0066    1.7650 H   0  0  0  0  0  0  0  0  0  0  0  0
   -0.7856    1.2025    2.9100 H   0  0  0  0  0  0  0  0  0  0  0  0
   -0.2270   -0.3136    2.6734 H   0  0  0  0  0  0  0  0  0  0  0  0
    0.7065    0.7916    3.4309 H   0  0  0  0  0  0  0  0  0  0  0  0
   -2.5415    4.2532    0.4921 H   0  0  0  0  0  0  0  0  0  0  0  0
   -2.5512    5.3047   -1.7129 H   0  0  0  0  0  0  0  0  0  0  0  0
   -1.8536    5.2544   -4.0041 H   0  0  0  0  0  0  0  0  0  0  0  0
    0.4676    2.0028   -3.3181 H   0  0  0  0  0  0  0  0  0  0  0  0
   -0.1747    1.9742   -1.0103 H   0  0  0  0  0  0  0  0  0  0  0  0
    3.6422   -2.7643   -1.2494 H   0  0  0  0  0  0  0  0  0  0  0  0
    5.5557   -4.1785   -1.5450 H   0  0  0  0  0  0  0  0  0  0  0  0
  1  2  1  0
  2  3  1  0
  3  4  2  0
  4  5  1  0
  5  6  2  0
  6  7  1  0
  7  8  2  0
  8  9  1  0
  9 10  1  0
 10 11  1  0
 10 12  2  0
 12 13  1  0
 13 14  2  0
 13 15  1  0
 15 16  1  0
 16 17  2  0
 17 18  1  0
 18 19  2  0
 19 20  1  0
 20 21  2  0
 21 16  1  0
 12 22  1  0
 22 23  1  0
 23  9  1  0
 23 24  2  0
 24  7  1  0
  6 25  1  0
 25 26  2  0
 26  3  1  0
  1 27  1  0
  1 28  1  0
  1 29  1  0
  4 30  1  0
  5 31  1  0
  8 32  1  0
 11 33  1  0
 11 34  1  0
 11 35  1  0
 15 36  1  0
 17 37  1  0
 18 38  1  0
 20 39  1  0
 21 40  1  0
 25 41  1  0
 26 42  1  0
M  END
$$$$

     RDKit          3D

 42 45  0  0  0  0  0  0  0  0999 V2000
    8.3013   -4.6732   -0.9486 C   0  0  0  0  0  0  0  0  0  0  0  0
    7.5939   -4.6717    0.2826 O   0  0  0  0  0  0  0  0  0  0  0  0
    6.6800   -3.6883    0.4266 C   0  0  0  0  0  0  0  0  0  0  0  0
    7.0451   -2.5025    1.0551 C   0  0  0  0  0  0  0  0  0  0  0  0
    6.0993   -1.4932    1.2001 C   0  0  0  0  0  0  0  0  0  0  0  0
    4.8062   -1.6776    0.7198 C   0  0  0  0  0  0  0  0  0  0  0  0
    3.8270   -0.6188    0.8753 C   0  0  0  0  0  0  0  0  0  0  0  0
    2.5848   -0.5965    0.3162 C   0  0  0  0  0  0  0  0  0  0  0  0
    1.9680    0.5573    0.6975 N   0  0  0  0  0  0  0  0  0  0  0  0
    0.7855    1.2291    0.5340 C   0  0  0  0  0  0  0  0  0  0  0  0
   -0.4064    0.7644   -0.2834 C   0  0  0  0  0  0  0  0  0  0  0  0
    0.7039    2.4226    1.1799 C   0  0  0  0  0  0  0  0  0  0  0  0
   -0.4203    3.3408    1.1865 C   0  0  0  0  0  0  0  0  0  0  0  0
   -0.4121    4.2943    1.9150 O   0  0  0  0  0  0  0  0  0  0  0  0
   -1.4908    3.1188    0.3609 N   0  0  0  0  0  0  0  0  0  0  0  0
   -1.5052    3.6641   -0.9295 C   0  0  0  0  0  0  0  0  0  0  0  0
   -2.5279    3.3388   -1.8144 C   0  0  0  0  0  0  0  0  0  0  0  0
   -2.5100    3.8976   -3.0879 C   0  0  0  0  0  0  0  0  0  0  0  0
   -1.5282    4.7335   -3.4563 N   0  0  0  0  0  0  0  0  0  0  0  0
   -0.5334    5.0590   -2.6171 C   0  0  0  0  0  0  0  0  0  0  0  0
   -0.4953    4.5328   -1.3302 C   0  0  0  0  0  0  0  0  0  0  0  0
    2.1878    2.6360    1.9866 S   0  0  0  0  0  0  0  0  0  0  0  0
    2.8753    1.1739    1.4679 C   0  0  0  0  0  0  0  0  0  0  0  0
    3.9960    0.5163    1.6048 N   0  0  0  0  0  0  0  0  0  0  0  0
    4.4505   -2.8672    0.0933 C   0  0  0  0  0  0  0  0  0  0  0  0
    5.3906   -3.8816   -0.0571 C   0  0  0  0  0  0  0  0  0  0  0  0
    8.9505   -5.4339   -0.9591 H   0  0  0  0  0  0  0  0  0  0  0  0
    7.6548   -4.7764   -1.7044 H   0  0  0  0  0  0  0  0  0  0  0  0
    8.7971   -3.8106   -1.0493 H   0  0  0  0  0  0  0  0  0  0  0  0
    7.9758   -2.3773    1.3986 H   0  0  0  0  0  0  0  0  0  0  0  0
    6.3483   -0.6351    1.6492 H   0  0  0  0  0  0  0  0  0  0  0  0
    2.1935   -1.3042   -0.2721 H   0  0  0  0  0  0  0  0  0  0  0  0
   -1.1342    1.4481   -0.2298 H   0  0  0  0  0  0  0  0  0  0  0  0
   -0.1304    0.6455   -1.2372 H   0  0  0  0  0  0  0  0  0  0  0  0
   -0.7396   -0.1062    0.0783 H   0  0  0  0  0  0  0  0  0  0  0  0
   -2.2621    2.5676    0.6793 H   0  0  0  0  0  0  0  0  0  0  0  0
   -3.2608    2.7160   -1.5405 H   0  0  0  0  0  0  0  0  0  0  0  0
   -3.2376    3.6736   -3.7363 H   0  0  0  0  0  0  0  0  0  0  0  0
    0.1858    5.6847   -2.9191 H   0  0  0  0  0  0  0  0  0  0  0  0
    0.2455    4.7749   -0.7037 H   0  0  0  0  0  0  0  0  0  0  0  0
    3.5194   -2.9933   -0.2490 H   0  0  0  0  0  0  0  0  0  0  0  0
    5.1422   -4.7393   -0.5074 H   0  0  0  0  0  0  0  0  0  0  0  0
  1  2  1  0
  2  3  1  0
  3  4  2  0
  4  5  1  0
  5  6  2  0
  6  7  1  0
  7  8  2  0
  8  9  1  0
  9 10  1  0
 10 11  1  0
 10 12  2  0
 12 13  1  0
 13 14  2  0
 13 15  1  0
 15 16  1  0
 16 17  2  0
 17 18  1  0
 18 19  2  0
 19 20  1  0
 20 21  2  0
 21 16  1  0
 12 22  1  0
 22 23  1  0
 23  9  1  0
 23 24  2  0
 24  7  1  0
  6 25  1  0
 25 26  2  0
 26  3  1  0
  1 27  1  0
  1 28  1  0
  1 29  1  0
  4 30  1  0
  5 31  1  0
  8 32  1  0
 11 33  1  0
 11 34  1  0
 11 35  1  0
 15 36  1  0
 17 37  1  0
 18 38  1  0
 20 39  1  0
 21 40  1  0
 25 41  1  0
 26 42  1  0
M  END
$$$$

     RDKit          3D

 42 45  0  0  0  0  0  0  0  0999 V2000
    8.3128   -4.5674    0.0449 C   0  0  0  0  0  0  0  0  0  0  0  0
    8.2208   -3.2290   -0.4207 O   0  0  0  0  0  0  0  0  0  0  0  0
    6.9920   -2.6736   -0.3539 C   0  0  0  0  0  0  0  0  0  0  0  0
    6.6788   -1.8328    0.7089 C   0  0  0  0  0  0  0  0  0  0  0  0
    5.4115   -1.2634    0.7720 C   0  0  0  0  0  0  0  0  0  0  0  0
    4.4752   -1.5387   -0.2202 C   0  0  0  0  0  0  0  0  0  0  0  0
    3.1564   -0.9395   -0.1459 C   0  0  0  0  0  0  0  0  0  0  0  0
    2.7458   -0.0343    0.7859 C   0  0  0  0  0  0  0  0  0  0  0  0
    1.4495    0.2912    0.5197 N   0  0  0  0  0  0  0  0  0  0  0  0
    0.4369    1.0801    0.9978 C   0  0  0  0  0  0  0  0  0  0  0  0
    0.5077    2.0011    2.2026 C   0  0  0  0  0  0  0  0  0  0  0  0
   -0.7295    1.0087    0.3030 C   0  0  0  0  0  0  0  0  0  0  0  0
   -1.9595    1.7287    0.5785 C   0  0  0  0  0  0  0  0  0  0  0  0
   -2.8472    1.1914    1.1812 O   0  0  0  0  0  0  0  0  0  0  0  0
   -2.1068    3.0217    0.1504 N   0  0  0  0  0  0  0  0  0  0  0  0
   -1.3914    3.4760   -0.9652 C   0  0  0  0  0  0  0  0  0  0  0  0
   -1.4522    4.8152   -1.3365 C   0  0  0  0  0  0  0  0  0  0  0  0
   -0.7301    5.2313   -2.4500 C   0  0  0  0  0  0  0  0  0  0  0  0
    0.0103    4.3609   -3.1517 N   0  0  0  0  0  0  0  0  0  0  0  0
    0.0813    3.0657   -2.8093 C   0  0  0  0  0  0  0  0  0  0  0  0
   -0.6180    2.5883   -1.7059 C   0  0  0  0  0  0  0  0  0  0  0  0
   -0.4685   -0.0985   -0.9636 S   0  0  0  0  0  0  0  0  0  0  0  0
    1.1444   -0.4396   -0.5619 C   0  0  0  0  0  0  0  0  0  0  0  0
    2.1242   -1.1870   -0.9960 N   0  0  0  0  0  0  0  0  0  0  0  0
    4.7977   -2.3811   -1.2787 C   0  0  0  0  0  0  0  0  0  0  0  0
    6.0634   -2.9540   -1.3503 C   0  0  0  0  0  0  0  0  0  0  0  0
    9.2560   -4.8874   -0.0451 H   0  0  0  0  0  0  0  0  0  0  0  0
    8.0379   -4.6057    1.0055 H   0  0  0  0  0  0  0  0  0  0  0  0
    7.7095   -5.1514   -0.4981 H   0  0  0  0  0  0  0  0  0  0  0  0
    7.3563   -1.6403    1.4188 H   0  0  0  0  0  0  0  0  0  0  0  0
    5.1731   -0.6564    1.5301 H   0  0  0  0  0  0  0  0  0  0  0  0
    3.2997    0.3283    1.5354 H   0  0  0  0  0  0  0  0  0  0  0  0
   -0.3738    2.4569    2.3259 H   0  0  0  0  0  0  0  0  0  0  0  0
    0.7233    1.4657    3.0191 H   0  0  0  0  0  0  0  0  0  0  0  0
    1.2202    2.6873    2.0561 H   0  0  0  0  0  0  0  0  0  0  0  0
   -2.7250    3.6414    0.6341 H   0  0  0  0  0  0  0  0  0  0  0  0
   -2.0035    5.4652   -0.8136 H   0  0  0  0  0  0  0  0  0  0  0  0
   -0.7634    6.1905   -2.7306 H   0  0  0  0  0  0  0  0  0  0  0  0
    0.6413    2.4391   -3.3513 H   0  0  0  0  0  0  0  0  0  0  0  0
   -0.5657    1.6231   -1.4495 H   0  0  0  0  0  0  0  0  0  0  0  0
    4.1199   -2.5751   -1.9879 H   0  0  0  0  0  0  0  0  0  0  0  0
    6.3025   -3.5600   -2.1090 H   0  0  0  0  0  0  0  0  0  0  0  0
  1  2  1  0
  2  3  1  0
  3  4  2  0
  4  5  1  0
  5  6  2  0
  6  7  1  0
  7  8  2  0
  8  9  1  0
  9 10  1  0
 10 11  1  0
 10 12  2  0
 12 13  1  0
 13 14  2  0
 13 15  1  0
 15 16  1  0
 16 17  2  0
 17 18  1  0
 18 19  2  0
 19 20  1  0
 20 21  2  0
 21 16  1  0
 12 22  1  0
 22 23  1  0
 23  9  1  0
 23 24  2  0
 24  7  1  0
  6 25  1  0
 25 26  2  0
 26  3  1  0
  1 27  1  0
  1 28  1  0
  1 29  1  0
  4 30  1  0
  5 31  1  0
  8 32  1  0
 11 33  1  0
 11 34  1  0
 11 35  1  0
 15 36  1  0
 17 37  1  0
 18 38  1  0
 20 39  1  0
 21 40  1  0
 25 41  1  0
 26 42  1  0
M  END
$$$$

     RDKit          3D

 42 45  0  0  0  0  0  0  0  0999 V2000
    7.9631   -5.8227    1.0100 C   0  0  0  0  0  0  0  0  0  0  0  0
    8.1883   -4.4505    1.2976 O   0  0  0  0  0  0  0  0  0  0  0  0
    7.2280   -3.6022    0.8717 C   0  0  0  0  0  0  0  0  0  0  0  0
    6.2062   -3.2346    1.7407 C   0  0  0  0  0  0  0  0  0  0  0  0
    5.2201   -2.3603    1.2962 C   0  0  0  0  0  0  0  0  0  0  0  0
    5.2637   -1.8659   -0.0040 C   0  0  0  0  0  0  0  0  0  0  0  0
    4.2311   -0.9540   -0.4580 C   0  0  0  0  0  0  0  0  0  0  0  0
    3.2845   -0.3697    0.3286 C   0  0  0  0  0  0  0  0  0  0  0  0
    2.5029    0.4187   -0.4618 N   0  0  0  0  0  0  0  0  0  0  0  0
    1.4205    1.2543   -0.3824 C   0  0  0  0  0  0  0  0  0  0  0  0
    0.6444    1.6026    0.8750 C   0  0  0  0  0  0  0  0  0  0  0  0
    1.0304    1.8096   -1.5605 C   0  0  0  0  0  0  0  0  0  0  0  0
   -0.0744    2.7265   -1.7743 C   0  0  0  0  0  0  0  0  0  0  0  0
   -0.2513    3.2105   -2.8580 O   0  0  0  0  0  0  0  0  0  0  0  0
   -0.9150    3.0394   -0.7388 N   0  0  0  0  0  0  0  0  0  0  0  0
   -1.9345    3.9820   -0.9245 C   0  0  0  0  0  0  0  0  0  0  0  0
   -2.7184    4.3850    0.1516 C   0  0  0  0  0  0  0  0  0  0  0  0
   -3.7225    5.3218   -0.0693 C   0  0  0  0  0  0  0  0  0  0  0  0
   -3.9312    5.8275   -1.2936 N   0  0  0  0  0  0  0  0  0  0  0  0
   -3.1858    5.4513   -2.3436 C   0  0  0  0  0  0  0  0  0  0  0  0
   -2.1666    4.5179   -2.1871 C   0  0  0  0  0  0  0  0  0  0  0  0
    2.0960    1.2166   -2.7484 S   0  0  0  0  0  0  0  0  0  0  0  0
    3.0199    0.2661   -1.6891 C   0  0  0  0  0  0  0  0  0  0  0  0
    4.0478   -0.5390   -1.7400 N   0  0  0  0  0  0  0  0  0  0  0  0
    6.2892   -2.2398   -0.8657 C   0  0  0  0  0  0  0  0  0  0  0  0
    7.2804   -3.1130   -0.4290 C   0  0  0  0  0  0  0  0  0  0  0  0
    8.7245   -6.3665    1.3631 H   0  0  0  0  0  0  0  0  0  0  0  0
    7.1124   -6.1190    1.4440 H   0  0  0  0  0  0  0  0  0  0  0  0
    7.8941   -5.9489    0.0204 H   0  0  0  0  0  0  0  0  0  0  0  0
    6.1807   -3.5945    2.6733 H   0  0  0  0  0  0  0  0  0  0  0  0
    4.4801   -2.0869    1.9107 H   0  0  0  0  0  0  0  0  0  0  0  0
    3.1812   -0.4974    1.3150 H   0  0  0  0  0  0  0  0  0  0  0  0
   -0.0965    2.2338    0.6454 H   0  0  0  0  0  0  0  0  0  0  0  0
    0.2608    0.7686    1.2716 H   0  0  0  0  0  0  0  0  0  0  0  0
    1.2576    2.0347    1.5363 H   0  0  0  0  0  0  0  0  0  0  0  0
   -0.8009    2.5950    0.1498 H   0  0  0  0  0  0  0  0  0  0  0  0
   -2.5633    4.0089    1.0650 H   0  0  0  0  0  0  0  0  0  0  0  0
   -4.2953    5.6216    0.6935 H   0  0  0  0  0  0  0  0  0  0  0  0
   -3.3642    5.8449   -3.2454 H   0  0  0  0  0  0  0  0  0  0  0  0
   -1.6101    4.2368   -2.9689 H   0  0  0  0  0  0  0  0  0  0  0  0
    6.3141   -1.8812   -1.7989 H   0  0  0  0  0  0  0  0  0  0  0  0
    8.0212   -3.3855   -1.0428 H   0  0  0  0  0  0  0  0  0  0  0  0
  1  2  1  0
  2  3  1  0
  3  4  2  0
  4  5  1  0
  5  6  2  0
  6  7  1  0
  7  8  2  0
  8  9  1  0
  9 10  1  0
 10 11  1  0
 10 12  2  0
 12 13  1  0
 13 14  2  0
 13 15  1  0
 15 16  1  0
 16 17  2  0
 17 18  1  0
 18 19  2  0
 19 20  1  0
 20 21  2  0
 21 16  1  0
 12 22  1  0
 22 23  1  0
 23  9  1  0
 23 24  2  0
 24  7  1  0
  6 25  1  0
 25 26  2  0
 26  3  1  0
  1 27  1  0
  1 28  1  0
  1 29  1  0
  4 30  1  0
  5 31  1  0
  8 32  1  0
 11 33  1  0
 11 34  1  0
 11 35  1  0
 15 36  1  0
 17 37  1  0
 18 38  1  0
 20 39  1  0
 21 40  1  0
 25 41  1  0
 26 42  1  0
M  END
$$$$

     RDKit          3D

 42 45  0  0  0  0  0  0  0  0999 V2000
    7.3678   -5.3699    0.0782 C   0  0  0  0  0  0  0  0  0  0  0  0
    7.5366   -4.2491   -0.7772 O   0  0  0  0  0  0  0  0  0  0  0  0
    6.6370   -3.2551   -0.6172 C   0  0  0  0  0  0  0  0  0  0  0  0
    5.6364   -3.3862    0.3399 C   0  0  0  0  0  0  0  0  0  0  0  0
    4.7129   -2.3587    0.5002 C   0  0  0  0  0  0  0  0  0  0  0  0
    4.7970   -1.2182   -0.2928 C   0  0  0  0  0  0  0  0  0  0  0  0
    3.8295   -0.1517   -0.1177 C   0  0  0  0  0  0  0  0  0  0  0  0
    2.8983   -0.0781    0.8741 C   0  0  0  0  0  0  0  0  0  0  0  0
    2.1828    1.0688    0.7008 N   0  0  0  0  0  0  0  0  0  0  0  0
    1.1481    1.7660    1.2659 C   0  0  0  0  0  0  0  0  0  0  0  0
    0.3618    1.3638    2.5007 C   0  0  0  0  0  0  0  0  0  0  0  0
    0.8197    2.9255    0.6366 C   0  0  0  0  0  0  0  0  0  0  0  0
   -0.2254    3.8607    1.0110 C   0  0  0  0  0  0  0  0  0  0  0  0
   -0.0402    4.6422    1.9025 O   0  0  0  0  0  0  0  0  0  0  0  0
   -1.4234    3.8510    0.3464 N   0  0  0  0  0  0  0  0  0  0  0  0
   -1.4752    3.4622   -0.9985 C   0  0  0  0  0  0  0  0  0  0  0  0
   -0.3509    2.9214   -1.6136 C   0  0  0  0  0  0  0  0  0  0  0  0
   -0.4378    2.5474   -2.9504 C   0  0  0  0  0  0  0  0  0  0  0  0
   -1.5813    2.7035   -3.6332 N   0  0  0  0  0  0  0  0  0  0  0  0
   -2.6760    3.2231   -3.0575 C   0  0  0  0  0  0  0  0  0  0  0  0
   -2.6523    3.6165   -1.7236 C   0  0  0  0  0  0  0  0  0  0  0  0
    1.8792    3.0711   -0.6881 S   0  0  0  0  0  0  0  0  0  0  0  0
    2.7208    1.6277   -0.3923 C   0  0  0  0  0  0  0  0  0  0  0  0
    3.7022    0.9420   -0.9157 N   0  0  0  0  0  0  0  0  0  0  0  0
    5.8008   -1.0966   -1.2476 C   0  0  0  0  0  0  0  0  0  0  0  0
    6.7295   -2.1190   -1.4138 C   0  0  0  0  0  0  0  0  0  0  0  0
    8.0776   -6.0471   -0.1157 H   0  0  0  0  0  0  0  0  0  0  0  0
    7.4393   -5.0756    1.0312 H   0  0  0  0  0  0  0  0  0  0  0  0
    6.4677   -5.7763   -0.0786 H   0  0  0  0  0  0  0  0  0  0  0  0
    5.5816   -4.2090    0.9056 H   0  0  0  0  0  0  0  0  0  0  0  0
    3.9888   -2.4394    1.1851 H   0  0  0  0  0  0  0  0  0  0  0  0
    2.7633   -0.7494    1.6029 H   0  0  0  0  0  0  0  0  0  0  0  0
   -0.3360    2.0544    2.6911 H   0  0  0  0  0  0  0  0  0  0  0  0
   -0.0783    0.4800    2.3424 H   0  0  0  0  0  0  0  0  0  0  0  0
    0.9819    1.2922    3.2820 H   0  0  0  0  0  0  0  0  0  0  0  0
   -2.2609    4.1214    0.8213 H   0  0  0  0  0  0  0  0  0  0  0  0
    0.5021    2.8041   -1.1052 H   0  0  0  0  0  0  0  0  0  0  0  0
    0.3615    2.1575   -3.4075 H   0  0  0  0  0  0  0  0  0  0  0  0
   -3.5150    3.3283   -3.5912 H   0  0  0  0  0  0  0  0  0  0  0  0
   -3.4676    4.0038   -1.2932 H   0  0  0  0  0  0  0  0  0  0  0  0
    5.8550   -0.2745   -1.8144 H   0  0  0  0  0  0  0  0  0  0  0  0
    7.4545   -2.0380   -2.0978 H   0  0  0  0  0  0  0  0  0  0  0  0
  1  2  1  0
  2  3  1  0
  3  4  2  0
  4  5  1  0
  5  6  2  0
  6  7  1  0
  7  8  2  0
  8  9  1  0
  9 10  1  0
 10 11  1  0
 10 12  2  0
 12 13  1  0
 13 14  2  0
 13 15  1  0
 15 16  1  0
 16 17  2  0
 17 18  1  0
 18 19  2  0
 19 20  1  0
 20 21  2  0
 21 16  1  0
 12 22  1  0
 22 23  1  0
 23  9  1  0
 23 24  2  0
 24  7  1  0
  6 25  1  0
 25 26  2  0
 26  3  1  0
  1 27  1  0
  1 28  1  0
  1 29  1  0
  4 30  1  0
  5 31  1  0
  8 32  1  0
 11 33  1  0
 11 34  1  0
 11 35  1  0
 15 36  1  0
 17 37  1  0
 18 38  1  0
 20 39  1  0
 21 40  1  0
 25 41  1  0
 26 42  1  0
M  END
$$$$

     RDKit          3D

 42 45  0  0  0  0  0  0  0  0999 V2000
    8.2642   -5.2244    1.7932 C   0  0  0  0  0  0  0  0  0  0  0  0
    8.2735   -4.5385    0.5499 O   0  0  0  0  0  0  0  0  0  0  0  0
    7.1747   -3.7997    0.2854 C   0  0  0  0  0  0  0  0  0  0  0  0
    6.1481   -4.3495   -0.4748 C   0  0  0  0  0  0  0  0  0  0  0  0
    5.0187   -3.5836   -0.7435 C   0  0  0  0  0  0  0  0  0  0  0  0
    4.9272   -2.2840   -0.2542 C   0  0  0  0  0  0  0  0  0  0  0  0
    3.7451   -1.4934   -0.5394 C   0  0  0  0  0  0  0  0  0  0  0  0
    3.4694   -0.2619   -0.0259 C   0  0  0  0  0  0  0  0  0  0  0  0
    2.2740    0.1520   -0.5328 N   0  0  0  0  0  0  0  0  0  0  0  0
    1.4085    1.2118   -0.4712 C   0  0  0  0  0  0  0  0  0  0  0  0
    1.5943    2.4775    0.3463 C   0  0  0  0  0  0  0  0  0  0  0  0
    0.2857    1.0866   -1.2275 C   0  0  0  0  0  0  0  0  0  0  0  0
   -0.7961    2.0459   -1.3562 C   0  0  0  0  0  0  0  0  0  0  0  0
   -1.6618    1.8687   -2.1681 O   0  0  0  0  0  0  0  0  0  0  0  0
   -0.8288    3.1536   -0.5507 N   0  0  0  0  0  0  0  0  0  0  0  0
   -1.7893    4.1499   -0.7683 C   0  0  0  0  0  0  0  0  0  0  0  0
   -3.0455    3.8138   -1.2621 C   0  0  0  0  0  0  0  0  0  0  0  0
   -3.9743    4.8286   -1.4672 C   0  0  0  0  0  0  0  0  0  0  0  0
   -3.6667    6.1050   -1.1943 N   0  0  0  0  0  0  0  0  0  0  0  0
   -2.4607    6.4488   -0.7177 C   0  0  0  0  0  0  0  0  0  0  0  0
   -1.4890    5.4797   -0.4917 C   0  0  0  0  0  0  0  0  0  0  0  0
    0.3926   -0.4260   -2.0014 S   0  0  0  0  0  0  0  0  0  0  0  0
    1.8887   -0.8569   -1.3269 C   0  0  0  0  0  0  0  0  0  0  0  0
    2.7279   -1.8577   -1.3653 N   0  0  0  0  0  0  0  0  0  0  0  0
    5.9594   -1.7428    0.5045 C   0  0  0  0  0  0  0  0  0  0  0  0
    7.0922   -2.5023    0.7791 C   0  0  0  0  0  0  0  0  0  0  0  0
    9.1151   -5.7398    1.8959 H   0  0  0  0  0  0  0  0  0  0  0  0
    8.1834   -4.5625    2.5384 H   0  0  0  0  0  0  0  0  0  0  0  0
    7.4878   -5.8539    1.8208 H   0  0  0  0  0  0  0  0  0  0  0  0
    6.2210   -5.2838   -0.8239 H   0  0  0  0  0  0  0  0  0  0  0  0
    4.2726   -3.9667   -1.2881 H   0  0  0  0  0  0  0  0  0  0  0  0
    4.0447    0.2497    0.6124 H   0  0  0  0  0  0  0  0  0  0  0  0
    0.8111    3.0832    0.2056 H   0  0  0  0  0  0  0  0  0  0  0  0
    1.6630    2.2412    1.3155 H   0  0  0  0  0  0  0  0  0  0  0  0
    2.4311    2.9418    0.0562 H   0  0  0  0  0  0  0  0  0  0  0  0
   -0.1670    3.2510    0.1928 H   0  0  0  0  0  0  0  0  0  0  0  0
   -3.2760    2.8622   -1.4653 H   0  0  0  0  0  0  0  0  0  0  0  0
   -4.8817    4.6039   -1.8221 H   0  0  0  0  0  0  0  0  0  0  0  0
   -2.2590    7.4088   -0.5236 H   0  0  0  0  0  0  0  0  0  0  0  0
   -0.5897    5.7346   -0.1362 H   0  0  0  0  0  0  0  0  0  0  0  0
    5.8874   -0.8080    0.8525 H   0  0  0  0  0  0  0  0  0  0  0  0
    7.8379   -2.1199    1.3248 H   0  0  0  0  0  0  0  0  0  0  0  0
  1  2  1  0
  2  3  1  0
  3  4  2  0
  4  5  1  0
  5  6  2  0
  6  7  1  0
  7  8  2  0
  8  9  1  0
  9 10  1  0
 10 11  1  0
 10 12  2  0
 12 13  1  0
 13 14  2  0
 13 15  1  0
 15 16  1  0
 16 17  2  0
 17 18  1  0
 18 19  2  0
 19 20  1  0
 20 21  2  0
 21 16  1  0
 12 22  1  0
 22 23  1  0
 23  9  1  0
 23 24  2  0
 24  7  1  0
  6 25  1  0
 25 26  2  0
 26  3  1  0
  1 27  1  0
  1 28  1  0
  1 29  1  0
  4 30  1  0
  5 31  1  0
  8 32  1  0
 11 33  1  0
 11 34  1  0
 11 35  1  0
 15 36  1  0
 17 37  1  0
 18 38  1  0
 20 39  1  0
 21 40  1  0
 25 41  1  0
 26 42  1  0
M  END
$$$$

     RDKit          3D

 42 45  0  0  0  0  0  0  0  0999 V2000
    8.5001   -4.1945   -0.3898 C   0  0  0  0  0  0  0  0  0  0  0  0
    7.1559   -4.6357   -0.5118 O   0  0  0  0  0  0  0  0  0  0  0  0
    6.2154   -3.6750   -0.3874 C   0  0  0  0  0  0  0  0  0  0  0  0
    5.5675   -3.5064    0.8316 C   0  0  0  0  0  0  0  0  0  0  0  0
    4.5999   -2.5149    0.9536 C   0  0  0  0  0  0  0  0  0  0  0  0
    4.2902   -1.7075   -0.1368 C   0  0  0  0  0  0  0  0  0  0  0  0
    3.2800   -0.6757    0.0005 C   0  0  0  0  0  0  0  0  0  0  0  0
    2.6644   -0.3154    1.1612 C   0  0  0  0  0  0  0  0  0  0  0  0
    1.7850    0.6877    0.8821 N   0  0  0  0  0  0  0  0  0  0  0  0
    0.8690    1.4950    1.5028 C   0  0  0  0  0  0  0  0  0  0  0  0
    0.5220    1.4898    2.9807 C   0  0  0  0  0  0  0  0  0  0  0  0
    0.2277    2.3750    0.6887 C   0  0  0  0  0  0  0  0  0  0  0  0
   -0.7831    3.3448    1.0691 C   0  0  0  0  0  0  0  0  0  0  0  0
   -1.0311    3.5296    2.2286 O   0  0  0  0  0  0  0  0  0  0  0  0
   -1.4541    4.0491    0.1045 N   0  0  0  0  0  0  0  0  0  0  0  0
   -1.2607    3.7424   -1.2487 C   0  0  0  0  0  0  0  0  0  0  0  0
   -2.0691    2.7988   -1.8740 C   0  0  0  0  0  0  0  0  0  0  0  0
   -1.8483    2.5182   -3.2183 C   0  0  0  0  0  0  0  0  0  0  0  0
   -0.8771    3.1441   -3.8989 N   0  0  0  0  0  0  0  0  0  0  0  0
   -0.0874    4.0569   -3.3134 C   0  0  0  0  0  0  0  0  0  0  0  0
   -0.2583    4.3809   -1.9716 C   0  0  0  0  0  0  0  0  0  0  0  0
    0.8428    2.1179   -0.8778 S   0  0  0  0  0  0  0  0  0  0  0  0
    1.9154    0.8787   -0.4383 C   0  0  0  0  0  0  0  0  0  0  0  0
    2.7909    0.0940   -1.0083 N   0  0  0  0  0  0  0  0  0  0  0  0
    4.9431   -1.8841   -1.3519 C   0  0  0  0  0  0  0  0  0  0  0  0
    5.9133   -2.8727   -1.4824 C   0  0  0  0  0  0  0  0  0  0  0  0
    9.1176   -4.9740   -0.4960 H   0  0  0  0  0  0  0  0  0  0  0  0
    8.6941   -3.5165   -1.0988 H   0  0  0  0  0  0  0  0  0  0  0  0
    8.6352   -3.7827    0.5113 H   0  0  0  0  0  0  0  0  0  0  0  0
    5.7945   -4.0909    1.6107 H   0  0  0  0  0  0  0  0  0  0  0  0
    4.1268   -2.3821    1.8246 H   0  0  0  0  0  0  0  0  0  0  0  0
    2.8292   -0.7173    2.0619 H   0  0  0  0  0  0  0  0  0  0  0  0
   -0.1783    2.1805    3.1611 H   0  0  0  0  0  0  0  0  0  0  0  0
    0.1750    0.5881    3.2384 H   0  0  0  0  0  0  0  0  0  0  0  0
    1.3407    1.6974    3.5160 H   0  0  0  0  0  0  0  0  0  0  0  0
   -2.0820    4.7822    0.3661 H   0  0  0  0  0  0  0  0  0  0  0  0
   -2.7939    2.3319   -1.3675 H   0  0  0  0  0  0  0  0  0  0  0  0
   -2.4203    1.8420   -3.6825 H   0  0  0  0  0  0  0  0  0  0  0  0
    0.6292    4.5077   -3.8455 H   0  0  0  0  0  0  0  0  0  0  0  0
    0.3296    5.0613   -1.5340 H   0  0  0  0  0  0  0  0  0  0  0  0
    4.7153   -1.3008   -2.1316 H   0  0  0  0  0  0  0  0  0  0  0  0
    6.3874   -3.0049   -2.3529 H   0  0  0  0  0  0  0  0  0  0  0  0
  1  2  1  0
  2  3  1  0
  3  4  2  0
  4  5  1  0
  5  6  2  0
  6  7  1  0
  7  8  2  0
  8  9  1  0
  9 10  1  0
 10 11  1  0
 10 12  2  0
 12 13  1  0
 13 14  2  0
 13 15  1  0
 15 16  1  0
 16 17  2  0
 17 18  1  0
 18 19  2  0
 19 20  1  0
 20 21  2  0
 21 16  1  0
 12 22  1  0
 22 23  1  0
 23  9  1  0
 23 24  2  0
 24  7  1  0
  6 25  1  0
 25 26  2  0
 26  3  1  0
  1 27  1  0
  1 28  1  0
  1 29  1  0
  4 30  1  0
  5 31  1  0
  8 32  1  0
 11 33  1  0
 11 34  1  0
 11 35  1  0
 15 36  1  0
 17 37  1  0
 18 38  1  0
 20 39  1  0
 21 40  1  0
 25 41  1  0
 26 42  1  0
M  END
$$$$
