
     RDKit          3D

 42 45  0  0  0  0  0  0  0  0999 V2000
   -8.7530   -1.5181    0.0077 C   0  0  0  0  0  0  0  0  0  0  0  0
   -9.8217   -1.3092    0.0091 H   0  0  0  0  0  0  0  0  0  0  0  0
   -8.1198   -0.2617    0.0037 O   0  0  0  0  0  0  0  0  0  0  0  0
   -6.7600   -0.2173    0.0018 C   0  0  0  0  0  0  0  0  0  0  0  0
   -5.9221   -1.3285    0.0029 C   0  0  0  0  0  0  0  0  0  0  0  0
   -4.5514   -1.1581    0.0011 C   0  0  0  0  0  0  0  0  0  0  0  0
   -3.9815    0.1123   -0.0018 C   0  0  0  0  0  0  0  0  0  0  0  0
   -4.8281    1.2231   -0.0031 C   0  0  0  0  0  0  0  0  0  0  0  0
   -6.1940    1.0604   -0.0013 C   0  0  0  0  0  0  0  0  0  0  0  0
   -6.8569    1.9114   -0.0023 H   0  0  0  0  0  0  0  0  0  0  0  0
   -4.4138    2.2194   -0.0055 H   0  0  0  0  0  0  0  0  0  0  0  0
   -2.5384    0.2503   -0.0028 C   0  0  0  0  0  0  0  0  0  0  0  0
   -1.7710    1.3968   -0.0034 C   0  0  0  0  0  0  0  0  0  0  0  0
   -0.4693    0.9767   -0.0033 N   0  0  0  0  0  0  0  0  0  0  0  0
    0.7833    1.5238   -0.0028 C   0  0  0  0  0  0  0  0  0  0  0  0
    1.7528    0.5622   -0.0021 C   0  0  0  0  0  0  0  0  0  0  0  0
    3.2063    0.7900   -0.0001 C   0  0  0  0  0  0  0  0  0  0  0  0
    3.6860    1.9070    0.0041 O   0  0  0  0  0  0  0  0  0  0  0  0
    3.9416   -0.3624   -0.0031 N   0  0  0  0  0  0  0  0  0  0  0  0
    5.3245   -0.5085   -0.0004 C   0  0  0  0  0  0  0  0  0  0  0  0
    6.2193    0.5591    0.0096 C   0  0  0  0  0  0  0  0  0  0  0  0
    7.5745    0.2716    0.0118 C   0  0  0  0  0  0  0  0  0  0  0  0
    8.0747   -0.9517    0.0048 N   0  0  0  0  0  0  0  0  0  0  0  0
    7.2212   -1.9620   -0.0047 C   0  0  0  0  0  0  0  0  0  0  0  0
    5.8481   -1.8029   -0.0077 C   0  0  0  0  0  0  0  0  0  0  0  0
    5.1916   -2.6607   -0.0154 H   0  0  0  0  0  0  0  0  0  0  0  0
    7.6635   -2.9495   -0.0102 H   0  0  0  0  0  0  0  0  0  0  0  0
    8.3021    1.0722    0.0195 H   0  0  0  0  0  0  0  0  0  0  0  0
    5.8650    1.5749    0.0154 H   0  0  0  0  0  0  0  0  0  0  0  0
    3.4291   -1.2350   -0.0082 H   0  0  0  0  0  0  0  0  0  0  0  0
    1.0613   -1.0733   -0.0021 S   0  0  0  0  0  0  0  0  0  0  0  0
   -0.5191   -0.3989   -0.0027 C   0  0  0  0  0  0  0  0  0  0  0  0
   -1.7299   -0.8649   -0.0024 N   0  0  0  0  0  0  0  0  0  0  0  0
    0.9391    3.0000   -0.0033 C   0  0  0  0  0  0  0  0  0  0  0  0
    1.9927    3.2589   -0.0015 H   0  0  0  0  0  0  0  0  0  0  0  0
    0.4573    3.4225    0.8785 H   0  0  0  0  0  0  0  0  0  0  0  0
    0.4605    3.4215   -0.8873 H   0  0  0  0  0  0  0  0  0  0  0  0
   -2.0370    2.4319   -0.0038 H   0  0  0  0  0  0  0  0  0  0  0  0
   -3.8953   -2.0140    0.0020 H   0  0  0  0  0  0  0  0  0  0  0  0
   -6.3257   -2.3288    0.0052 H   0  0  0  0  0  0  0  0  0  0  0  0
   -8.4965   -2.0949    0.9021 H   0  0  0  0  0  0  0  0  0  0  0  0
   -8.4997   -2.0990   -0.8850 H   0  0  0  0  0  0  0  0  0  0  0  0
  1  2  1  0
  1  3  1  0
  1 41  1  0
  1 42  1  0
  3  4  1  0
  4  5  2  0
  4  9  1  0
  5  6  1  0
  5 40  1  0
  6  7  2  0
  6 39  1  0
  7  8  1  0
  7 12  1  0
  8  9  2  0
  8 11  1  0
  9 10  1  0
 12 13  2  0
 12 33  1  0
 13 14  1  0
 13 38  1  0
 14 15  1  0
 14 32  1  0
 15 16  2  0
 15 34  1  0
 16 17  1  0
 16 31  1  0
 17 18  2  0
 17 19  1  0
 19 20  1  0
 19 30  1  0
 20 21  2  0
 20 25  1  0
 21 22  1  0
 21 29  1  0
 22 23  2  0
 22 28  1  0
 23 24  1  0
 24 25  2  0
 24 27  1  0
 25 26  1  0
 31 32  1  0
 32 33  2  0
 34 35  1  0
 34 36  1  0
 34 37  1  0
M  END
$$$$

     RDKit          3D

 42 45  0  0  0  0  0  0  0  0999 V2000
   -8.9701   -0.2279   -0.0024 C   0  0  0  0  0  0  0  0  0  0  0  0
   -9.9293   -0.7431    0.0020 H   0  0  0  0  0  0  0  0  0  0  0  0
   -7.9939   -1.2404    0.0132 O   0  0  0  0  0  0  0  0  0  0  0  0
   -6.6812   -0.8833    0.0112 C   0  0  0  0  0  0  0  0  0  0  0  0
   -6.2097    0.4259   -0.0048 C   0  0  0  0  0  0  0  0  0  0  0  0
   -4.8493    0.6724   -0.0057 C   0  0  0  0  0  0  0  0  0  0  0  0
   -3.9303   -0.3725    0.0093 C   0  0  0  0  0  0  0  0  0  0  0  0
   -4.4113   -1.6843    0.0257 C   0  0  0  0  0  0  0  0  0  0  0  0
   -5.7624   -1.9363    0.0266 C   0  0  0  0  0  0  0  0  0  0  0  0
   -6.1432   -2.9453    0.0391 H   0  0  0  0  0  0  0  0  0  0  0  0
   -3.6974   -2.4921    0.0375 H   0  0  0  0  0  0  0  0  0  0  0  0
   -2.5002   -0.1340    0.0078 C   0  0  0  0  0  0  0  0  0  0  0  0
   -1.8134    1.0626   -0.0110 C   0  0  0  0  0  0  0  0  0  0  0  0
   -0.4859    0.7332   -0.0044 N   0  0  0  0  0  0  0  0  0  0  0  0
    0.7260    1.3652   -0.0143 C   0  0  0  0  0  0  0  0  0  0  0  0
    1.7593    0.4726    0.0008 C   0  0  0  0  0  0  0  0  0  0  0  0
    3.1937    0.8004   -0.0052 C   0  0  0  0  0  0  0  0  0  0  0  0
    3.5949    1.9479   -0.0227 O   0  0  0  0  0  0  0  0  0  0  0  0
    4.0070   -0.2981    0.0103 N   0  0  0  0  0  0  0  0  0  0  0  0
    5.3968   -0.3478    0.0078 C   0  0  0  0  0  0  0  0  0  0  0  0
    6.0091   -1.6026    0.0252 C   0  0  0  0  0  0  0  0  0  0  0  0
    7.3900   -1.6659    0.0226 C   0  0  0  0  0  0  0  0  0  0  0  0
    8.1711   -0.5988    0.0044 N   0  0  0  0  0  0  0  0  0  0  0  0
    7.5871    0.5867   -0.0120 C   0  0  0  0  0  0  0  0  0  0  0  0
    6.2153    0.7793   -0.0113 C   0  0  0  0  0  0  0  0  0  0  0  0
    5.7912    1.7679   -0.0251 H   0  0  0  0  0  0  0  0  0  0  0  0
    8.2573    1.4358   -0.0266 H   0  0  0  0  0  0  0  0  0  0  0  0
    7.8999   -2.6201    0.0357 H   0  0  0  0  0  0  0  0  0  0  0  0
    5.4138   -2.5039    0.0404 H   0  0  0  0  0  0  0  0  0  0  0  0
    3.5563   -1.2041    0.0247 H   0  0  0  0  0  0  0  0  0  0  0  0
    1.1821   -1.2063    0.0283 S   0  0  0  0  0  0  0  0  0  0  0  0
   -0.4409   -0.6424    0.0181 C   0  0  0  0  0  0  0  0  0  0  0  0
   -1.6168   -1.1904    0.0258 N   0  0  0  0  0  0  0  0  0  0  0  0
    0.7799    2.8485   -0.0390 C   0  0  0  0  0  0  0  0  0  0  0  0
    1.8133    3.1791   -0.0448 H   0  0  0  0  0  0  0  0  0  0  0  0
    0.2723    3.2511    0.8376 H   0  0  0  0  0  0  0  0  0  0  0  0
    0.2716    3.2217   -0.9281 H   0  0  0  0  0  0  0  0  0  0  0  0
   -2.1494    2.0770   -0.0280 H   0  0  0  0  0  0  0  0  0  0  0  0
   -4.5049    1.6954   -0.0182 H   0  0  0  0  0  0  0  0  0  0  0  0
   -6.8918    1.2617   -0.0167 H   0  0  0  0  0  0  0  0  0  0  0  0
   -8.8960    0.3890   -0.9039 H   0  0  0  0  0  0  0  0  0  0  0  0
   -8.9004    0.4123    0.8832 H   0  0  0  0  0  0  0  0  0  0  0  0
  1  2  1  0
  1  3  1  0
  1 41  1  0
  1 42  1  0
  3  4  1  0
  4  5  2  0
  4  9  1  0
  5  6  1  0
  5 40  1  0
  6  7  2  0
  6 39  1  0
  7  8  1  0
  7 12  1  0
  8  9  2  0
  8 11  1  0
  9 10  1  0
 12 13  2  0
 12 33  1  0
 13 14  1  0
 13 38  1  0
 14 15  1  0
 14 32  1  0
 15 16  2  0
 15 34  1  0
 16 17  1  0
 16 31  1  0
 17 18  2  0
 17 19  1  0
 19 20  1  0
 19 30  1  0
 20 21  2  0
 20 25  1  0
 21 22  1  0
 21 29  1  0
 22 23  2  0
 22 28  1  0
 23 24  1  0
 24 25  2  0
 24 27  1  0
 25 26  1  0
 31 32  1  0
 32 33  2  0
 34 35  1  0
 34 36  1  0
 34 37  1  0
M  END
$$$$

     RDKit          3D

 42 45  0  0  0  0  0  0  0  0999 V2000
   -7.8303   -2.2926    0.0407 C   0  0  0  0  0  0  0  0  0  0  0  0
   -7.3370   -3.0937    0.6006 H   0  0  0  0  0  0  0  0  0  0  0  0
   -7.3600   -1.0250    0.4294 O   0  0  0  0  0  0  0  0  0  0  0  0
   -6.0405   -0.7387    0.2562 C   0  0  0  0  0  0  0  0  0  0  0  0
   -5.0970   -1.6065   -0.2854 C   0  0  0  0  0  0  0  0  0  0  0  0
   -3.7820   -1.2033   -0.4117 C   0  0  0  0  0  0  0  0  0  0  0  0
   -3.3729    0.0641   -0.0055 C   0  0  0  0  0  0  0  0  0  0  0  0
   -4.3250    0.9301    0.5366 C   0  0  0  0  0  0  0  0  0  0  0  0
   -5.6365    0.5348    0.6649 C   0  0  0  0  0  0  0  0  0  0  0  0
   -6.3800    1.1960    1.0819 H   0  0  0  0  0  0  0  0  0  0  0  0
   -4.0364    1.9187    0.8585 H   0  0  0  0  0  0  0  0  0  0  0  0
   -1.9831    0.4496   -0.1548 C   0  0  0  0  0  0  0  0  0  0  0  0
   -1.3640    1.6335    0.1902 C   0  0  0  0  0  0  0  0  0  0  0  0
   -0.0502    1.4837   -0.1594 N   0  0  0  0  0  0  0  0  0  0  0  0
    1.1068    2.2104   -0.1365 C   0  0  0  0  0  0  0  0  0  0  0  0
    2.1585    1.4918   -0.6240 C   0  0  0  0  0  0  0  0  0  0  0  0
    3.5160    2.0068   -0.8479 C   0  0  0  0  0  0  0  0  0  0  0  0
    3.7309    3.1802   -1.0876 O   0  0  0  0  0  0  0  0  0  0  0  0
    4.5461    1.1048   -0.8632 N   0  0  0  0  0  0  0  0  0  0  0  0
    4.6546   -0.1506   -0.2714 C   0  0  0  0  0  0  0  0  0  0  0  0
    5.5546   -1.0775   -0.7951 C   0  0  0  0  0  0  0  0  0  0  0  0
    5.6700   -2.3095   -0.1759 C   0  0  0  0  0  0  0  0  0  0  0  0
    4.9786   -2.6583    0.8951 N   0  0  0  0  0  0  0  0  0  0  0  0
    4.1412   -1.7709    1.4021 C   0  0  0  0  0  0  0  0  0  0  0  0
    3.9434   -0.5070    0.8734 C   0  0  0  0  0  0  0  0  0  0  0  0
    3.2678    0.1882    1.3460 H   0  0  0  0  0  0  0  0  0  0  0  0
    3.6061   -2.0854    2.2881 H   0  0  0  0  0  0  0  0  0  0  0  0
    6.3519   -3.0578   -0.5572 H   0  0  0  0  0  0  0  0  0  0  0  0
    6.1423   -0.8372   -1.6678 H   0  0  0  0  0  0  0  0  0  0  0  0
    5.3937    1.4703   -1.2813 H   0  0  0  0  0  0  0  0  0  0  0  0
    1.6734   -0.1182   -1.1826 S   0  0  0  0  0  0  0  0  0  0  0  0
    0.0570    0.2197   -0.6972 C   0  0  0  0  0  0  0  0  0  0  0  0
   -1.0720   -0.4216   -0.7085 N   0  0  0  0  0  0  0  0  0  0  0  0
    1.1123    3.5924    0.4077 C   0  0  0  0  0  0  0  0  0  0  0  0
    0.8508    3.5825    1.4664 H   0  0  0  0  0  0  0  0  0  0  0  0
    0.3739    4.1959   -0.1193 H   0  0  0  0  0  0  0  0  0  0  0  0
    2.0920    4.0393    0.2740 H   0  0  0  0  0  0  0  0  0  0  0  0
   -1.7378    2.5297    0.6367 H   0  0  0  0  0  0  0  0  0  0  0  0
   -3.0443   -1.8691   -0.8306 H   0  0  0  0  0  0  0  0  0  0  0  0
   -5.3750   -2.5965   -0.6115 H   0  0  0  0  0  0  0  0  0  0  0  0
   -7.6929   -2.4611   -1.0323 H   0  0  0  0  0  0  0  0  0  0  0  0
   -8.8945   -2.2955    0.2715 H   0  0  0  0  0  0  0  0  0  0  0  0
  1  2  1  0
  1  3  1  0
  1 41  1  0
  1 42  1  0
  3  4  1  0
  4  5  2  0
  4  9  1  0
  5  6  1  0
  5 40  1  0
  6  7  2  0
  6 39  1  0
  7  8  1  0
  7 12  1  0
  8  9  2  0
  8 11  1  0
  9 10  1  0
 12 13  2  0
 12 33  1  0
 13 14  1  0
 13 38  1  0
 14 15  1  0
 14 32  1  0
 15 16  2  0
 15 34  1  0
 16 17  1  0
 16 31  1  0
 17 18  2  0
 17 19  1  0
 19 20  1  0
 19 30  1  0
 20 21  2  0
 20 25  1  0
 21 22  1  0
 21 29  1  0
 22 23  2  0
 22 28  1  0
 23 24  1  0
 24 25  2  0
 24 27  1  0
 25 26  1  0
 31 32  1  0
 32 33  2  0
 34 35  1  0
 34 36  1  0
 34 37  1  0
M  END
$$$$

     RDKit          3D

 42 45  0  0  0  0  0  0  0  0999 V2000
   -8.2132   -1.2039    0.4404 C   0  0  0  0  0  0  0  0  0  0  0  0
   -8.3935   -0.2552   -0.0757 H   0  0  0  0  0  0  0  0  0  0  0  0
   -7.1398   -1.9089   -0.1328 O   0  0  0  0  0  0  0  0  0  0  0  0
   -5.9051   -1.3359   -0.1291 C   0  0  0  0  0  0  0  0  0  0  0  0
   -4.8820   -2.0876   -0.7133 C   0  0  0  0  0  0  0  0  0  0  0  0
   -3.5977   -1.6003   -0.7617 C   0  0  0  0  0  0  0  0  0  0  0  0
   -3.2899   -0.3459   -0.2287 C   0  0  0  0  0  0  0  0  0  0  0  0
   -4.3124    0.3983    0.3518 C   0  0  0  0  0  0  0  0  0  0  0  0
   -5.6066   -0.0859    0.4038 C   0  0  0  0  0  0  0  0  0  0  0  0
   -6.3729    0.5202    0.8617 H   0  0  0  0  0  0  0  0  0  0  0  0
   -4.1025    1.3707    0.7709 H   0  0  0  0  0  0  0  0  0  0  0  0
   -1.9270    0.1450   -0.2945 C   0  0  0  0  0  0  0  0  0  0  0  0
   -1.4056    1.3386    0.1614 C   0  0  0  0  0  0  0  0  0  0  0  0
   -0.0739    1.3073   -0.1486 N   0  0  0  0  0  0  0  0  0  0  0  0
    1.0263    2.1088   -0.0292 C   0  0  0  0  0  0  0  0  0  0  0  0
    2.1420    1.5046   -0.5296 C   0  0  0  0  0  0  0  0  0  0  0  0
    3.4645    2.1296   -0.6659 C   0  0  0  0  0  0  0  0  0  0  0  0
    3.6001    3.3300   -0.8114 O   0  0  0  0  0  0  0  0  0  0  0  0
    4.5578    1.3066   -0.7100 N   0  0  0  0  0  0  0  0  0  0  0  0
    4.7403    0.0212   -0.2071 C   0  0  0  0  0  0  0  0  0  0  0  0
    5.7227   -0.7968   -0.7630 C   0  0  0  0  0  0  0  0  0  0  0  0
    5.9105   -2.0598   -0.2300 C   0  0  0  0  0  0  0  0  0  0  0  0
    5.2145   -2.5360    0.7876 N   0  0  0  0  0  0  0  0  0  0  0  0
    4.2976   -1.7517    1.3260 C   0  0  0  0  0  0  0  0  0  0  0  0
    4.0222   -0.4697    0.8823 C   0  0  0  0  0  0  0  0  0  0  0  0
    3.2820    0.1378    1.3783 H   0  0  0  0  0  0  0  0  0  0  0  0
    3.7601   -2.1690    2.1668 H   0  0  0  0  0  0  0  0  0  0  0  0
    6.6580   -2.7264   -0.6387 H   0  0  0  0  0  0  0  0  0  0  0  0
    6.3177   -0.4505   -1.5941 H   0  0  0  0  0  0  0  0  0  0  0  0
    5.3888    1.7617   -1.0693 H   0  0  0  0  0  0  0  0  0  0  0  0
    1.7923   -0.0881   -1.2228 S   0  0  0  0  0  0  0  0  0  0  0  0
    0.1409    0.0988   -0.7748 C   0  0  0  0  0  0  0  0  0  0  0  0
   -0.9384   -0.6156   -0.8769 N   0  0  0  0  0  0  0  0  0  0  0  0
    0.9149    3.4423    0.6156 C   0  0  0  0  0  0  0  0  0  0  0  0
    0.1510    4.0309    0.1086 H   0  0  0  0  0  0  0  0  0  0  0  0
    1.8631    3.9657    0.5503 H   0  0  0  0  0  0  0  0  0  0  0  0
    0.6230    3.3334    1.6606 H   0  0  0  0  0  0  0  0  0  0  0  0
   -1.8564    2.1707    0.6583 H   0  0  0  0  0  0  0  0  0  0  0  0
   -2.8035   -2.1746   -1.2110 H   0  0  0  0  0  0  0  0  0  0  0  0
   -5.1291   -3.0545   -1.1221 H   0  0  0  0  0  0  0  0  0  0  0  0
   -8.0465   -1.0124    1.5055 H   0  0  0  0  0  0  0  0  0  0  0  0
   -9.0842   -1.8469    0.3236 H   0  0  0  0  0  0  0  0  0  0  0  0
  1  2  1  0
  1  3  1  0
  1 41  1  0
  1 42  1  0
  3  4  1  0
  4  5  2  0
  4  9  1  0
  5  6  1  0
  5 40  1  0
  6  7  2  0
  6 39  1  0
  7  8  1  0
  7 12  1  0
  8  9  2  0
  8 11  1  0
  9 10  1  0
 12 13  2  0
 12 33  1  0
 13 14  1  0
 13 38  1  0
 14 15  1  0
 14 32  1  0
 15 16  2  0
 15 34  1  0
 16 17  1  0
 16 31  1  0
 17 18  2  0
 17 19  1  0
 19 20  1  0
 19 30  1  0
 20 21  2  0
 20 25  1  0
 21 22  1  0
 21 29  1  0
 22 23  2  0
 22 28  1  0
 23 24  1  0
 24 25  2  0
 24 27  1  0
 25 26  1  0
 31 32  1  0
 32 33  2  0
 34 35  1  0
 34 36  1  0
 34 37  1  0
M  END
$$$$
