
     RDKit          3D

 22 22  0  0  0  0  0  0  0  0999 V2000
    0.3150    4.5594    1.0000 N   0  0  0  0  0  0  0  0  0  0  0  0
    1.0000    3.3729    1.0000 C   0  0  0  0  0  0  0  0  0  0  0  0
    2.2000    3.3729    1.0000 O   0  0  0  0  0  0  0  0  0  0  0  0
    0.3150    2.1865    1.0000 N   0  0  0  0  0  0  0  0  0  0  0  0
    0.1432    1.4947    2.1700 C   0  0  0  0  0  0  0  0  0  0  0  0
   -0.7206    1.8187    2.9373 O   0  0  0  0  0  0  0  0  0  0  0  0
    0.9576    0.4330    2.4639 N   0  0  0  0  0  0  0  0  0  0  0  0
    0.6844   -0.8295    1.9236 C   0  0  0  0  0  0  0  0  0  0  0  0
    1.5054   -1.9095    2.2305 C   0  0  0  0  0  0  0  0  0  0  0  0
    1.2127   -3.1534    1.6811 C   0  0  0  0  0  0  0  0  0  0  0  0
    0.1191   -3.3222    0.8380 C   0  0  0  0  0  0  0  0  0  0  0  0
   -0.6993   -2.2393    0.5341 C   0  0  0  0  0  0  0  0  0  0  0  0
   -0.4109   -0.9933    1.0810 C   0  0  0  0  0  0  0  0  0  0  0  0
   -1.4542    0.3967    0.6961 Cl  0  0  0  0  0  0  0  0  0  0  0  0
   -0.6850    4.5594    1.0000 H   0  0  0  0  0  0  0  0  0  0  0  0
    0.8150    5.4254    1.0000 H   0  0  0  0  0  0  0  0  0  0  0  0
   -0.0596    1.8254    0.1460 H   0  0  0  0  0  0  0  0  0  0  0  0
    1.7471    0.5597    3.0644 H   0  0  0  0  0  0  0  0  0  0  0  0
    2.2928   -1.7937    2.8359 H   0  0  0  0  0  0  0  0  0  0  0  0
    1.7962   -3.9369    1.8951 H   0  0  0  0  0  0  0  0  0  0  0  0
   -0.0787   -4.2225    0.4503 H   0  0  0  0  0  0  0  0  0  0  0  0
   -1.4868   -2.3554   -0.0711 H   0  0  0  0  0  0  0  0  0  0  0  0
  1  2  1  0
  2  3  2  0
  2  4  1  0
  4  5  1  0
  5  6  2  0
  5  7  1  0
  7  8  1  0
  8  9  2  0
  9 10  1  0
 10 11  2  0
 11 12  1  0
 12 13  2  0
 13  8  1  0
 13 14  1  0
  1 15  1  0
  1 16  1  0
  4 17  1  0
  7 18  1  0
  9 19  1  0
 10 20  1  0
 11 21  1  0
 12 22  1  0
M  END
$$$$

     RDKit          3D

 22 22  0  0  0  0  0  0  0  0999 V2000
    2.2246    1.7321    1.5558 N   0  0  0  0  0  0  0  0  0  0  0  0
    1.4755    2.7423    1.0123 C   0  0  0  0  0  0  0  0  0  0  0  0
    1.9736    3.5051    0.2313 O   0  0  0  0  0  0  0  0  0  0  0  0
    0.1579    2.8815    1.3604 N   0  0  0  0  0  0  0  0  0  0  0  0
   -0.4104    2.0114    2.2531 C   0  0  0  0  0  0  0  0  0  0  0  0
   -0.3023    2.2058    3.4323 O   0  0  0  0  0  0  0  0  0  0  0  0
   -1.1021    0.9193    1.7995 N   0  0  0  0  0  0  0  0  0  0  0  0
   -0.4225   -0.2715    1.5156 C   0  0  0  0  0  0  0  0  0  0  0  0
    0.9681   -0.2908    1.4970 C   0  0  0  0  0  0  0  0  0  0  0  0
    1.6197   -1.4863    1.2124 C   0  0  0  0  0  0  0  0  0  0  0  0
    0.8995   -2.6471    0.9497 C   0  0  0  0  0  0  0  0  0  0  0  0
   -0.4911   -2.6231    0.9697 C   0  0  0  0  0  0  0  0  0  0  0  0
   -1.1475   -1.4301    1.2538 C   0  0  0  0  0  0  0  0  0  0  0  0
   -2.9269   -1.3925    1.2810 Cl  0  0  0  0  0  0  0  0  0  0  0  0
    1.8095    1.0964    2.2067 H   0  0  0  0  0  0  0  0  0  0  0  0
    3.1864    1.6305    1.3017 H   0  0  0  0  0  0  0  0  0  0  0  0
   -0.3892    3.6183    0.9630 H   0  0  0  0  0  0  0  0  0  0  0  0
   -2.0924    0.9726    1.6712 H   0  0  0  0  0  0  0  0  0  0  0  0
    1.4907    0.5407    1.6850 H   0  0  0  0  0  0  0  0  0  0  0  0
    2.6193   -1.5117    1.1965 H   0  0  0  0  0  0  0  0  0  0  0  0
    1.3817   -3.4992    0.7464 H   0  0  0  0  0  0  0  0  0  0  0  0
   -1.0135   -3.4548    0.7819 H   0  0  0  0  0  0  0  0  0  0  0  0
  1  2  1  0
  2  3  2  0
  2  4  1  0
  4  5  1  0
  5  6  2  0
  5  7  1  0
  7  8  1  0
  8  9  2  0
  9 10  1  0
 10 11  2  0
 11 12  1  0
 12 13  2  0
 13  8  1  0
 13 14  1  0
  1 15  1  0
  1 16  1  0
  4 17  1  0
  7 18  1  0
  9 19  1  0
 10 20  1  0
 11 21  1  0
 12 22  1  0
M  END
$$$$

     RDKit          3D

 22 22  0  0  0  0  0  0  0  0999 V2000
    2.2304    3.5338    1.6317 N   0  0  0  0  0  0  0  0  0  0  0  0
    1.3294    2.5149    1.7964 C   0  0  0  0  0  0  0  0  0  0  0  0
    1.6963    1.4511    2.2130 O   0  0  0  0  0  0  0  0  0  0  0  0
    0.0097    2.7107    1.4854 N   0  0  0  0  0  0  0  0  0  0  0  0
   -0.8905    1.6904    1.6457 C   0  0  0  0  0  0  0  0  0  0  0  0
   -1.6428    1.6954    2.5806 O   0  0  0  0  0  0  0  0  0  0  0  0
   -0.9318    0.6645    0.7387 N   0  0  0  0  0  0  0  0  0  0  0  0
   -0.2747   -0.5408    1.0147 C   0  0  0  0  0  0  0  0  0  0  0  0
    1.1145   -0.5779    1.0723 C   0  0  0  0  0  0  0  0  0  0  0  0
    1.7434   -1.7875    1.3484 C   0  0  0  0  0  0  0  0  0  0  0  0
    1.0022   -2.9448    1.5641 C   0  0  0  0  0  0  0  0  0  0  0  0
   -0.3870   -2.9028    1.5057 C   0  0  0  0  0  0  0  0  0  0  0  0
   -1.0207   -1.6956    1.2301 C   0  0  0  0  0  0  0  0  0  0  0  0
   -2.7981   -1.6350    1.1538 Cl  0  0  0  0  0  0  0  0  0  0  0  0
    1.9247    4.4203    1.2845 H   0  0  0  0  0  0  0  0  0  0  0  0
    3.1938    3.3909    1.8586 H   0  0  0  0  0  0  0  0  0  0  0  0
   -0.2967    3.5983    1.1414 H   0  0  0  0  0  0  0  0  0  0  0  0
   -1.4311    0.7764   -0.1204 H   0  0  0  0  0  0  0  0  0  0  0  0
    1.6521    0.2510    0.9180 H   0  0  0  0  0  0  0  0  0  0  0  0
    2.7417   -1.8257    1.3924 H   0  0  0  0  0  0  0  0  0  0  0  0
    1.4682   -3.8073    1.7612 H   0  0  0  0  0  0  0  0  0  0  0  0
   -0.9244   -3.7317    1.6602 H   0  0  0  0  0  0  0  0  0  0  0  0
  1  2  1  0
  2  3  2  0
  2  4  1  0
  4  5  1  0
  5  6  2  0
  5  7  1  0
  7  8  1  0
  8  9  2  0
  9 10  1  0
 10 11  2  0
 11 12  1  0
 12 13  2  0
 13  8  1  0
 13 14  1  0
  1 15  1  0
  1 16  1  0
  4 17  1  0
  7 18  1  0
  9 19  1  0
 10 20  1  0
 11 21  1  0
 12 22  1  0
M  END
$$$$

     RDKit          3D

 22 22  0  0  0  0  0  0  0  0999 V2000
    1.0030    1.7905    0.1246 N   0  0  0  0  0  0  0  0  0  0  0  0
    1.3556    2.7643    1.0215 C   0  0  0  0  0  0  0  0  0  0  0  0
    1.9862    3.7173    0.6553 O   0  0  0  0  0  0  0  0  0  0  0  0
    0.9882    2.6500    2.3363 N   0  0  0  0  0  0  0  0  0  0  0  0
   -0.1212    1.9219    2.6768 C   0  0  0  0  0  0  0  0  0  0  0  0
   -1.2094    2.4244    2.6196 O   0  0  0  0  0  0  0  0  0  0  0  0
    0.0117    0.6202    3.0826 N   0  0  0  0  0  0  0  0  0  0  0  0
    0.1369   -0.4002    2.1319 C   0  0  0  0  0  0  0  0  0  0  0  0
    1.3978   -0.8644    1.7723 C   0  0  0  0  0  0  0  0  0  0  0  0
    1.4955   -1.8789    0.8257 C   0  0  0  0  0  0  0  0  0  0  0  0
    0.3559   -2.4249    0.2440 C   0  0  0  0  0  0  0  0  0  0  0  0
   -0.9030   -1.9577    0.6070 C   0  0  0  0  0  0  0  0  0  0  0  0
   -1.0061   -0.9433    1.5532 C   0  0  0  0  0  0  0  0  0  0  0  0
   -2.6141   -0.3409    2.0221 Cl  0  0  0  0  0  0  0  0  0  0  0  0
    0.4775    0.9963    0.4297 H   0  0  0  0  0  0  0  0  0  0  0  0
    1.2711    1.8739   -0.8352 H   0  0  0  0  0  0  0  0  0  0  0  0
    1.5299    3.0980    3.0476 H   0  0  0  0  0  0  0  0  0  0  0  0
    0.0193    0.3987    4.0577 H   0  0  0  0  0  0  0  0  0  0  0  0
    2.2202   -0.4754    2.1873 H   0  0  0  0  0  0  0  0  0  0  0  0
    2.3971   -2.2204    0.5598 H   0  0  0  0  0  0  0  0  0  0  0  0
    0.4418   -3.1536   -0.4354 H   0  0  0  0  0  0  0  0  0  0  0  0
   -1.7253   -2.3470    0.1920 H   0  0  0  0  0  0  0  0  0  0  0  0
  1  2  1  0
  2  3  2  0
  2  4  1  0
  4  5  1  0
  5  6  2  0
  5  7  1  0
  7  8  1  0
  8  9  2  0
  9 10  1  0
 10 11  2  0
 11 12  1  0
 12 13  2  0
 13  8  1  0
 13 14  1  0
  1 15  1  0
  1 16  1  0
  4 17  1  0
  7 18  1  0
  9 19  1  0
 10 20  1  0
 11 21  1  0
 12 22  1  0
M  END
$$$$

     RDKit          3D

 22 22  0  0  0  0  0  0  0  0999 V2000
    1.8431    3.3499    2.0070 N   0  0  0  0  0  0  0  0  0  0  0  0
    1.4385    2.4944    1.0163 C   0  0  0  0  0  0  0  0  0  0  0  0
    2.2063    1.6876    0.5698 O   0  0  0  0  0  0  0  0  0  0  0  0
    0.1574    2.5601    0.5356 N   0  0  0  0  0  0  0  0  0  0  0  0
   -0.8133    1.7473    1.0591 C   0  0  0  0  0  0  0  0  0  0  0  0
   -1.9362    1.8071    0.6402 O   0  0  0  0  0  0  0  0  0  0  0  0
   -0.5019    0.8661    2.0608 N   0  0  0  0  0  0  0  0  0  0  0  0
   -0.0686   -0.4275    1.7457 C   0  0  0  0  0  0  0  0  0  0  0  0
    1.2682   -0.6572    1.4379 C   0  0  0  0  0  0  0  0  0  0  0  0
    1.6736   -1.9514    1.1285 C   0  0  0  0  0  0  0  0  0  0  0  0
    0.7632   -3.0032    1.1247 C   0  0  0  0  0  0  0  0  0  0  0  0
   -0.5727   -2.7687    1.4334 C   0  0  0  0  0  0  0  0  0  0  0  0
   -0.9832   -1.4763    1.7437 C   0  0  0  0  0  0  0  0  0  0  0  0
   -2.6913   -1.1695    2.1396 Cl  0  0  0  0  0  0  0  0  0  0  0  0
    1.2033    4.0223    2.3791 H   0  0  0  0  0  0  0  0  0  0  0  0
    2.7783    3.3020    2.3580 H   0  0  0  0  0  0  0  0  0  0  0  0
   -0.0693    3.2014   -0.1975 H   0  0  0  0  0  0  0  0  0  0  0  0
   -0.5841    1.1468    3.0171 H   0  0  0  0  0  0  0  0  0  0  0  0
    1.9268    0.0952    1.4391 H   0  0  0  0  0  0  0  0  0  0  0  0
    2.6324   -2.1280    0.9058 H   0  0  0  0  0  0  0  0  0  0  0  0
    1.0692   -3.9282    0.8999 H   0  0  0  0  0  0  0  0  0  0  0  0
   -1.2311   -3.5213    1.4324 H   0  0  0  0  0  0  0  0  0  0  0  0
  1  2  1  0
  2  3  2  0
  2  4  1  0
  4  5  1  0
  5  6  2  0
  5  7  1  0
  7  8  1  0
  8  9  2  0
  9 10  1  0
 10 11  2  0
 11 12  1  0
 12 13  2  0
 13  8  1  0
 13 14  1  0
  1 15  1  0
  1 16  1  0
  4 17  1  0
  7 18  1  0
  9 19  1  0
 10 20  1  0
 11 21  1  0
 12 22  1  0
M  END
$$$$

     RDKit          3D

 22 22  0  0  0  0  0  0  0  0999 V2000
    1.7650    1.9167    0.2538 N   0  0  0  0  0  0  0  0  0  0  0  0
    0.9917    2.7261    1.0437 C   0  0  0  0  0  0  0  0  0  0  0  0
    1.3456    3.8478    1.2814 O   0  0  0  0  0  0  0  0  0  0  0  0
   -0.1854    2.2547    1.5624 N   0  0  0  0  0  0  0  0  0  0  0  0
   -0.2492    1.8670    2.8749 C   0  0  0  0  0  0  0  0  0  0  0  0
   -0.4173    2.6866    3.7351 O   0  0  0  0  0  0  0  0  0  0  0  0
   -0.1210    0.5437    3.2052 N   0  0  0  0  0  0  0  0  0  0  0  0
    0.1216   -0.4070    2.2062 C   0  0  0  0  0  0  0  0  0  0  0  0
    1.4285   -0.7459    1.8717 C   0  0  0  0  0  0  0  0  0  0  0  0
    1.6430   -1.6932    0.8760 C   0  0  0  0  0  0  0  0  0  0  0  0
    0.5737   -2.2956    0.2212 C   0  0  0  0  0  0  0  0  0  0  0  0
   -0.7315   -1.9537    0.5593 C   0  0  0  0  0  0  0  0  0  0  0  0
   -0.9514   -1.0070    1.5544 C   0  0  0  0  0  0  0  0  0  0  0  0
   -2.6193   -0.5649    1.9918 Cl  0  0  0  0  0  0  0  0  0  0  0  0
    1.4701    0.9819    0.0558 H   0  0  0  0  0  0  0  0  0  0  0  0
    2.6242    2.2607   -0.1248 H   0  0  0  0  0  0  0  0  0  0  0  0
   -0.9982    2.1936    0.9829 H   0  0  0  0  0  0  0  0  0  0  0  0
   -0.2007    0.2566    4.1598 H   0  0  0  0  0  0  0  0  0  0  0  0
    2.2008   -0.3159    2.3392 H   0  0  0  0  0  0  0  0  0  0  0  0
    2.5786   -1.9445    0.6276 H   0  0  0  0  0  0  0  0  0  0  0  0
    0.7434   -2.9748   -0.4929 H   0  0  0  0  0  0  0  0  0  0  0  0
   -1.5037   -2.3840    0.0918 H   0  0  0  0  0  0  0  0  0  0  0  0
  1  2  1  0
  2  3  2  0
  2  4  1  0
  4  5  1  0
  5  6  2  0
  5  7  1  0
  7  8  1  0
  8  9  2  0
  9 10  1  0
 10 11  2  0
 11 12  1  0
 12 13  2  0
 13  8  1  0
 13 14  1  0
  1 15  1  0
  1 16  1  0
  4 17  1  0
  7 18  1  0
  9 19  1  0
 10 20  1  0
 11 21  1  0
 12 22  1  0
M  END
$$$$

     RDKit          3D

 22 22  0  0  0  0  0  0  0  0999 V2000
    1.7316    3.4050    0.4959 N   0  0  0  0  0  0  0  0  0  0  0  0
    1.5950    2.4668    1.4850 C   0  0  0  0  0  0  0  0  0  0  0  0
    2.4475    1.6380    1.6476 O   0  0  0  0  0  0  0  0  0  0  0  0
    0.4853    2.4749    2.2882 N   0  0  0  0  0  0  0  0  0  0  0  0
   -0.6507    1.8184    1.8937 C   0  0  0  0  0  0  0  0  0  0  0  0
   -1.4119    2.3432    1.1289 O   0  0  0  0  0  0  0  0  0  0  0  0
   -0.9174    0.5628    2.3725 N   0  0  0  0  0  0  0  0  0  0  0  0
   -0.3051   -0.5534    1.7897 C   0  0  0  0  0  0  0  0  0  0  0  0
    0.6736   -0.3805    0.8166 C   0  0  0  0  0  0  0  0  0  0  0  0
    1.2670   -1.5054    0.2532 C   0  0  0  0  0  0  0  0  0  0  0  0
    0.8929   -2.7849    0.6508 C   0  0  0  0  0  0  0  0  0  0  0  0
   -0.0861   -2.9529    1.6245 C   0  0  0  0  0  0  0  0  0  0  0  0
   -0.6825   -1.8312    2.1912 C   0  0  0  0  0  0  0  0  0  0  0  0
   -1.9361   -2.0393    3.4377 Cl  0  0  0  0  0  0  0  0  0  0  0  0
    1.0212    4.0956    0.3604 H   0  0  0  0  0  0  0  0  0  0  0  0
    2.5416    3.3991   -0.0904 H   0  0  0  0  0  0  0  0  0  0  0  0
    0.5044    2.9599    3.1625 H   0  0  0  0  0  0  0  0  0  0  0  0
   -1.5495    0.4435    3.1381 H   0  0  0  0  0  0  0  0  0  0  0  0
    0.9462    0.5369    0.5271 H   0  0  0  0  0  0  0  0  0  0  0  0
    1.9719   -1.3927   -0.4472 H   0  0  0  0  0  0  0  0  0  0  0  0
    1.3281   -3.5842    0.2365 H   0  0  0  0  0  0  0  0  0  0  0  0
   -0.3585   -3.8705    1.9141 H   0  0  0  0  0  0  0  0  0  0  0  0
  1  2  1  0
  2  3  2  0
  2  4  1  0
  4  5  1  0
  5  6  2  0
  5  7  1  0
  7  8  1  0
  8  9  2  0
  9 10  1  0
 10 11  2  0
 11 12  1  0
 12 13  2  0
 13  8  1  0
 13 14  1  0
  1 15  1  0
  1 16  1  0
  4 17  1  0
  7 18  1  0
  9 19  1  0
 10 20  1  0
 11 21  1  0
 12 22  1  0
M  END
$$$$

     RDKit          3D

 22 22  0  0  0  0  0  0  0  0999 V2000
    0.3209    3.8319    0.4802 N   0  0  0  0  0  0  0  0  0  0  0  0
    0.1824    3.5273    1.8088 C   0  0  0  0  0  0  0  0  0  0  0  0
    0.3075    4.3861    2.6374 O   0  0  0  0  0  0  0  0  0  0  0  0
   -0.0990    2.2422    2.1911 N   0  0  0  0  0  0  0  0  0  0  0  0
    0.9106    1.4145    2.6065 C   0  0  0  0  0  0  0  0  0  0  0  0
    1.2705    1.4346    3.7510 O   0  0  0  0  0  0  0  0  0  0  0  0
    1.5093    0.5637    1.7150 N   0  0  0  0  0  0  0  0  0  0  0  0
    0.9471   -0.6933    1.4612 C   0  0  0  0  0  0  0  0  0  0  0  0
    1.2751   -1.7774    2.2684 C   0  0  0  0  0  0  0  0  0  0  0  0
    0.7030   -3.0156    1.9956 C   0  0  0  0  0  0  0  0  0  0  0  0
   -0.1829   -3.1748    0.9349 C   0  0  0  0  0  0  0  0  0  0  0  0
   -0.5082   -2.0877    0.1305 C   0  0  0  0  0  0  0  0  0  0  0  0
    0.0612   -0.8473    0.3992 C   0  0  0  0  0  0  0  0  0  0  0  0
   -0.3508    0.5480   -0.6265 Cl  0  0  0  0  0  0  0  0  0  0  0  0
    0.2167    3.1162   -0.2104 H   0  0  0  0  0  0  0  0  0  0  0  0
    0.5263    4.7699    0.2011 H   0  0  0  0  0  0  0  0  0  0  0  0
   -1.0413    1.9084    2.1671 H   0  0  0  0  0  0  0  0  0  0  0  0
    2.3478    0.8404    1.2457 H   0  0  0  0  0  0  0  0  0  0  0  0
    1.9114   -1.6686    3.0321 H   0  0  0  0  0  0  0  0  0  0  0  0
    0.9317   -3.8019    2.5697 H   0  0  0  0  0  0  0  0  0  0  0  0
   -0.5860   -4.0711    0.7507 H   0  0  0  0  0  0  0  0  0  0  0  0
   -1.1446   -2.1967   -0.6331 H   0  0  0  0  0  0  0  0  0  0  0  0
  1  2  1  0
  2  3  2  0
  2  4  1  0
  4  5  1  0
  5  6  2  0
  5  7  1  0
  7  8  1  0
  8  9  2  0
  9 10  1  0
 10 11  2  0
 11 12  1  0
 12 13  2  0
 13  8  1  0
 13 14  1  0
  1 15  1  0
  1 16  1  0
  4 17  1  0
  7 18  1  0
  9 19  1  0
 10 20  1  0
 11 21  1  0
 12 22  1  0
M  END
$$$$

     RDKit          3D

 22 22  0  0  0  0  0  0  0  0999 V2000
   -0.6506    3.5263    2.1582 N   0  0  0  0  0  0  0  0  0  0  0  0
    0.4241    3.5497    1.3089 C   0  0  0  0  0  0  0  0  0  0  0  0
    0.9283    4.5963    1.0079 O   0  0  0  0  0  0  0  0  0  0  0  0
    0.9233    2.3784    0.8032 N   0  0  0  0  0  0  0  0  0  0  0  0
    1.6248    1.5259    1.6144 C   0  0  0  0  0  0  0  0  0  0  0  0
    1.9264    1.8666    2.7248 O   0  0  0  0  0  0  0  0  0  0  0  0
    1.9820    0.2846    1.1579 N   0  0  0  0  0  0  0  0  0  0  0  0
    1.0885   -0.7874    1.2727 C   0  0  0  0  0  0  0  0  0  0  0  0
    0.9020   -1.4081    2.5033 C   0  0  0  0  0  0  0  0  0  0  0  0
    0.0087   -2.4707    2.5913 C   0  0  0  0  0  0  0  0  0  0  0  0
   -0.6898   -2.9109    1.4716 C   0  0  0  0  0  0  0  0  0  0  0  0
   -0.5003   -2.2868    0.2431 C   0  0  0  0  0  0  0  0  0  0  0  0
    0.3919   -1.2237    0.1499 C   0  0  0  0  0  0  0  0  0  0  0  0
    0.6392   -0.4207   -1.4194 Cl  0  0  0  0  0  0  0  0  0  0  0  0
   -1.0707    2.6541    2.4090 H   0  0  0  0  0  0  0  0  0  0  0  0
   -1.0149    4.3812    2.5273 H   0  0  0  0  0  0  0  0  0  0  0  0
    0.7755    2.1457   -0.1581 H   0  0  0  0  0  0  0  0  0  0  0  0
    2.8808    0.1441    0.7427 H   0  0  0  0  0  0  0  0  0  0  0  0
    1.4015   -1.0958    3.3113 H   0  0  0  0  0  0  0  0  0  0  0  0
   -0.1333   -2.9244    3.4712 H   0  0  0  0  0  0  0  0  0  0  0  0
   -1.3285   -3.6763    1.5501 H   0  0  0  0  0  0  0  0  0  0  0  0
   -1.0001   -2.5992   -0.5647 H   0  0  0  0  0  0  0  0  0  0  0  0
  1  2  1  0
  2  3  2  0
  2  4  1  0
  4  5  1  0
  5  6  2  0
  5  7  1  0
  7  8  1  0
  8  9  2  0
  9 10  1  0
 10 11  2  0
 11 12  1  0
 12 13  2  0
 13  8  1  0
 13 14  1  0
  1 15  1  0
  1 16  1  0
  4 17  1  0
  7 18  1  0
  9 19  1  0
 10 20  1  0
 11 21  1  0
 12 22  1  0
M  END
$$$$

     RDKit          3D

 22 22  0  0  0  0  0  0  0  0999 V2000
   -0.9631    1.9330    1.2441 N   0  0  0  0  0  0  0  0  0  0  0  0
   -0.0706    2.8333    1.7634 C   0  0  0  0  0  0  0  0  0  0  0  0
   -0.4593    3.7300    2.4596 O   0  0  0  0  0  0  0  0  0  0  0  0
    1.2657    2.7098    1.4879 N   0  0  0  0  0  0  0  0  0  0  0  0
    1.9906    1.6938    2.0529 C   0  0  0  0  0  0  0  0  0  0  0  0
    2.4404    1.8203    3.1581 O   0  0  0  0  0  0  0  0  0  0  0  0
    2.2019    0.5334    1.3560 N   0  0  0  0  0  0  0  0  0  0  0  0
    1.2125   -0.4570    1.3289 C   0  0  0  0  0  0  0  0  0  0  0  0
    1.0581   -1.3153    2.4125 C   0  0  0  0  0  0  0  0  0  0  0  0
    0.0678   -2.2907    2.3612 C   0  0  0  0  0  0  0  0  0  0  0  0
   -0.7579   -2.4121    1.2483 C   0  0  0  0  0  0  0  0  0  0  0  0
   -0.6000   -1.5514    0.1670 C   0  0  0  0  0  0  0  0  0  0  0  0
    0.3888   -0.5742    0.2135 C   0  0  0  0  0  0  0  0  0  0  0  0
    0.5962    0.5305   -1.1669 Cl  0  0  0  0  0  0  0  0  0  0  0  0
   -0.6392    1.1857    0.6639 H   0  0  0  0  0  0  0  0  0  0  0  0
   -1.9385    2.0231    1.4452 H   0  0  0  0  0  0  0  0  0  0  0  0
    1.7120    3.3613    0.8743 H   0  0  0  0  0  0  0  0  0  0  0  0
    3.0627    0.3937    0.8667 H   0  0  0  0  0  0  0  0  0  0  0  0
    1.6490   -1.2324    3.2149 H   0  0  0  0  0  0  0  0  0  0  0  0
   -0.0521   -2.9131    3.1348 H   0  0  0  0  0  0  0  0  0  0  0  0
   -1.4654   -3.1185    1.2255 H   0  0  0  0  0  0  0  0  0  0  0  0
   -1.1911   -1.6342   -0.6352 H   0  0  0  0  0  0  0  0  0  0  0  0
  1  2  1  0
  2  3  2  0
  2  4  1  0
  4  5  1  0
  5  6  2  0
  5  7  1  0
  7  8  1  0
  8  9  2  0
  9 10  1  0
 10 11  2  0
 11 12  1  0
 12 13  2  0
 13  8  1  0
 13 14  1  0
  1 15  1  0
  1 16  1  0
  4 17  1  0
  7 18  1  0
  9 19  1  0
 10 20  1  0
 11 21  1  0
 12 22  1  0
M  END
$$$$

     RDKit          3D

 22 22  0  0  0  0  0  0  0  0999 V2000
    1.0267    3.6121    0.2824 N   0  0  0  0  0  0  0  0  0  0  0  0
    0.2032    2.6006    0.7015 C   0  0  0  0  0  0  0  0  0  0  0  0
   -0.2499    1.8266   -0.0958 O   0  0  0  0  0  0  0  0  0  0  0  0
   -0.1030    2.4727    2.0306 N   0  0  0  0  0  0  0  0  0  0  0  0
    0.5975    1.5933    2.8135 C   0  0  0  0  0  0  0  0  0  0  0  0
    1.6607    1.9116    3.2696 O   0  0  0  0  0  0  0  0  0  0  0  0
    0.0840    0.3504    3.0755 N   0  0  0  0  0  0  0  0  0  0  0  0
    0.2844   -0.6957    2.1666 C   0  0  0  0  0  0  0  0  0  0  0  0
    1.3539   -1.5686    2.3362 C   0  0  0  0  0  0  0  0  0  0  0  0
    1.5313   -2.5999    1.4198 C   0  0  0  0  0  0  0  0  0  0  0  0
    0.6580   -2.7617    0.3491 C   0  0  0  0  0  0  0  0  0  0  0  0
   -0.4104   -1.8865    0.1837 C   0  0  0  0  0  0  0  0  0  0  0  0
   -0.5921   -0.8536    1.0975 C   0  0  0  0  0  0  0  0  0  0  0  0
   -1.9573    0.2700    0.8915 Cl  0  0  0  0  0  0  0  0  0  0  0  0
    1.4043    4.2571    0.9468 H   0  0  0  0  0  0  0  0  0  0  0  0
    1.2502    3.7054   -0.6878 H   0  0  0  0  0  0  0  0  0  0  0  0
   -0.8379    3.0213    2.4295 H   0  0  0  0  0  0  0  0  0  0  0  0
   -0.4339    0.1904    3.9158 H   0  0  0  0  0  0  0  0  0  0  0  0
    1.9847   -1.4568    3.1040 H   0  0  0  0  0  0  0  0  0  0  0  0
    2.2969   -3.2335    1.5321 H   0  0  0  0  0  0  0  0  0  0  0  0
    0.7983   -3.5077   -0.3019 H   0  0  0  0  0  0  0  0  0  0  0  0
   -1.0412   -1.9986   -0.5840 H   0  0  0  0  0  0  0  0  0  0  0  0
  1  2  1  0
  2  3  2  0
  2  4  1  0
  4  5  1  0
  5  6  2  0
  5  7  1  0
  7  8  1  0
  8  9  2  0
  9 10  1  0
 10 11  2  0
 11 12  1  0
 12 13  2  0
 13  8  1  0
 13 14  1  0
  1 15  1  0
  1 16  1  0
  4 17  1  0
  7 18  1  0
  9 19  1  0
 10 20  1  0
 11 21  1  0
 12 22  1  0
M  END
$$$$

     RDKit          3D

 22 22  0  0  0  0  0  0  0  0999 V2000
    0.3784    3.9949    0.6154 N   0  0  0  0  0  0  0  0  0  0  0  0
    0.2303    2.6340    0.6709 C   0  0  0  0  0  0  0  0  0  0  0  0
   -0.7002    2.1090    0.1244 O   0  0  0  0  0  0  0  0  0  0  0  0
    1.1443    1.8726    1.3503 N   0  0  0  0  0  0  0  0  0  0  0  0
    0.9525    1.5947    2.6781 C   0  0  0  0  0  0  0  0  0  0  0  0
    1.3097    2.3791    3.5130 O   0  0  0  0  0  0  0  0  0  0  0  0
    0.3530    0.4211    3.0526 N   0  0  0  0  0  0  0  0  0  0  0  0
    0.3505   -0.6736    2.1796 C   0  0  0  0  0  0  0  0  0  0  0  0
    1.3575   -1.6296    2.2606 C   0  0  0  0  0  0  0  0  0  0  0  0
    1.3326   -2.7078    1.3821 C   0  0  0  0  0  0  0  0  0  0  0  0
    0.3209   -2.8345    0.4358 C   0  0  0  0  0  0  0  0  0  0  0  0
   -0.6843   -1.8761    0.3587 C   0  0  0  0  0  0  0  0  0  0  0  0
   -0.6639   -0.7960    1.2350 C   0  0  0  0  0  0  0  0  0  0  0  0
   -1.9472    0.4340    1.1416 Cl  0  0  0  0  0  0  0  0  0  0  0  0
    1.1538    4.4324    1.0708 H   0  0  0  0  0  0  0  0  0  0  0  0
   -0.2888    4.5506    0.1195 H   0  0  0  0  0  0  0  0  0  0  0  0
    1.9515    1.5197    0.8771 H   0  0  0  0  0  0  0  0  0  0  0  0
   -0.0829    0.3463    3.9495 H   0  0  0  0  0  0  0  0  0  0  0  0
    2.0872   -1.5433    2.9389 H   0  0  0  0  0  0  0  0  0  0  0  0
    2.0516   -3.4011    1.4315 H   0  0  0  0  0  0  0  0  0  0  0  0
    0.3162   -3.6149   -0.1894 H   0  0  0  0  0  0  0  0  0  0  0  0
   -1.4140   -1.9627   -0.3196 H   0  0  0  0  0  0  0  0  0  0  0  0
  1  2  1  0
  2  3  2  0
  2  4  1  0
  4  5  1  0
  5  6  2  0
  5  7  1  0
  7  8  1  0
  8  9  2  0
  9 10  1  0
 10 11  2  0
 11 12  1  0
 12 13  2  0
 13  8  1  0
 13 14  1  0
  1 15  1  0
  1 16  1  0
  4 17  1  0
  7 18  1  0
  9 19  1  0
 10 20  1  0
 11 21  1  0
 12 22  1  0
M  END
$$$$

     RDKit          3D

 22 22  0  0  0  0  0  0  0  0999 V2000
    0.4983    4.3616    1.4177 N   0  0  0  0  0  0  0  0  0  0  0  0
   -0.0326    3.1902    0.9455 C   0  0  0  0  0  0  0  0  0  0  0  0
   -0.2248    3.0496   -0.2306 O   0  0  0  0  0  0  0  0  0  0  0  0
   -0.3439    2.1793    1.8162 N   0  0  0  0  0  0  0  0  0  0  0  0
    0.6558    1.4722    2.4306 C   0  0  0  0  0  0  0  0  0  0  0  0
    0.8704    1.6298    3.6006 O   0  0  0  0  0  0  0  0  0  0  0  0
    1.4105    0.5852    1.7091 N   0  0  0  0  0  0  0  0  0  0  0  0
    0.9374   -0.7127    1.4804 C   0  0  0  0  0  0  0  0  0  0  0  0
    0.9645   -1.6531    2.5049 C   0  0  0  0  0  0  0  0  0  0  0  0
    0.4886   -2.9355    2.2524 C   0  0  0  0  0  0  0  0  0  0  0  0
   -0.0075   -3.2792    0.9990 C   0  0  0  0  0  0  0  0  0  0  0  0
   -0.0329   -2.3353   -0.0224 C   0  0  0  0  0  0  0  0  0  0  0  0
    0.4418   -1.0514    0.2250 C   0  0  0  0  0  0  0  0  0  0  0  0
    0.4121    0.1612   -1.0778 Cl  0  0  0  0  0  0  0  0  0  0  0  0
    0.6584    4.4788    2.3978 H   0  0  0  0  0  0  0  0  0  0  0  0
    0.7256    5.0995    0.7822 H   0  0  0  0  0  0  0  0  0  0  0  0
   -1.3009    1.9576    2.0032 H   0  0  0  0  0  0  0  0  0  0  0  0
    2.2993    0.8646    1.3458 H   0  0  0  0  0  0  0  0  0  0  0  0
    1.3201   -1.4114    3.4076 H   0  0  0  0  0  0  0  0  0  0  0  0
    0.5032   -3.6196    2.9818 H   0  0  0  0  0  0  0  0  0  0  0  0
   -0.3460   -4.2052    0.8323 H   0  0  0  0  0  0  0  0  0  0  0  0
   -0.3887   -2.5772   -0.9250 H   0  0  0  0  0  0  0  0  0  0  0  0
  1  2  1  0
  2  3  2  0
  2  4  1  0
  4  5  1  0
  5  6  2  0
  5  7  1  0
  7  8  1  0
  8  9  2  0
  9 10  1  0
 10 11  2  0
 11 12  1  0
 12 13  2  0
 13  8  1  0
 13 14  1  0
  1 15  1  0
  1 16  1  0
  4 17  1  0
  7 18  1  0
  9 19  1  0
 10 20  1  0
 11 21  1  0
 12 22  1  0
M  END
$$$$

     RDKit          3D

 22 22  0  0  0  0  0  0  0  0999 V2000
    2.2197    3.4903    1.7569 N   0  0  0  0  0  0  0  0  0  0  0  0
    1.3021    2.4745    1.8106 C   0  0  0  0  0  0  0  0  0  0  0  0
    1.6451    1.3728    2.1404 O   0  0  0  0  0  0  0  0  0  0  0  0
   -0.0072    2.7163    1.4878 N   0  0  0  0  0  0  0  0  0  0  0  0
   -0.9234    1.6988    1.5346 C   0  0  0  0  0  0  0  0  0  0  0  0
   -1.7797    1.7006    2.3753 O   0  0  0  0  0  0  0  0  0  0  0  0
   -0.8621    0.6793    0.6215 N   0  0  0  0  0  0  0  0  0  0  0  0
   -0.2357   -0.5265    0.9595 C   0  0  0  0  0  0  0  0  0  0  0  0
    1.1475   -0.5767    1.0968 C   0  0  0  0  0  0  0  0  0  0  0  0
    1.7459   -1.7864    1.4334 C   0  0  0  0  0  0  0  0  0  0  0  0
    0.9804   -2.9311    1.6306 C   0  0  0  0  0  0  0  0  0  0  0  0
   -0.4026   -2.8761    1.4925 C   0  0  0  0  0  0  0  0  0  0  0  0
   -1.0058   -1.6687    1.1561 C   0  0  0  0  0  0  0  0  0  0  0  0
   -2.7752   -1.5914    0.9777 Cl  0  0  0  0  0  0  0  0  0  0  0  0
    1.9338    4.4083    1.4821 H   0  0  0  0  0  0  0  0  0  0  0  0
    3.1754    3.3138    1.9925 H   0  0  0  0  0  0  0  0  0  0  0  0
   -0.2941    3.6355    1.2181 H   0  0  0  0  0  0  0  0  0  0  0  0
   -1.2647    0.7963   -0.2864 H   0  0  0  0  0  0  0  0  0  0  0  0
    1.7025    0.2431    0.9560 H   0  0  0  0  0  0  0  0  0  0  0  0
    2.7396   -1.8339    1.5348 H   0  0  0  0  0  0  0  0  0  0  0  0
    1.4246   -3.7939    1.8719 H   0  0  0  0  0  0  0  0  0  0  0  0
   -0.9575   -3.6960    1.6335 H   0  0  0  0  0  0  0  0  0  0  0  0
  1  2  1  0
  2  3  2  0
  2  4  1  0
  4  5  1  0
  5  6  2  0
  5  7  1  0
  7  8  1  0
  8  9  2  0
  9 10  1  0
 10 11  2  0
 11 12  1  0
 12 13  2  0
 13  8  1  0
 13 14  1  0
  1 15  1  0
  1 16  1  0
  4 17  1  0
  7 18  1  0
  9 19  1  0
 10 20  1  0
 11 21  1  0
 12 22  1  0
M  END
$$$$
