
     RDKit          3D

 34 36  0  0  0  0  0  0  0  0999 V2000
    3.7987    2.1689   -0.0011 C   0  0  0  0  0  0  0  0  0  0  0  0
    3.6435    0.6750   -0.0006 C   0  0  0  0  0  0  0  0  0  0  0  0
    4.7656   -0.1398   -0.0018 C   0  0  0  0  0  0  0  0  0  0  0  0
    4.6560   -1.5198   -0.0013 C   0  0  0  0  0  0  0  0  0  0  0  0
    3.4036   -2.1077    0.0006 C   0  0  0  0  0  0  0  0  0  0  0  0
    2.2671   -1.3202    0.0018 C   0  0  0  0  0  0  0  0  0  0  0  0
    2.3798    0.0655    0.0010 C   0  0  0  0  0  0  0  0  0  0  0  0
    1.2554    0.9060    0.0017 N   0  0  0  0  0  0  0  0  0  0  0  0
   -0.0476    0.6244    0.0011 C   0  0  0  0  0  0  0  0  0  0  0  0
   -0.5283   -0.6051    0.0009 N   0  0  0  0  0  0  0  0  0  0  0  0
   -1.8435   -0.7982    0.0003 C   0  0  0  0  0  0  0  0  0  0  0  0
   -2.3620   -2.1126   -0.0000 C   0  0  0  0  0  0  0  0  0  0  0  0
   -3.7116   -2.3171   -0.0007 C   0  0  0  0  0  0  0  0  0  0  0  0
   -4.6166   -1.2364   -0.0011 C   0  0  0  0  0  0  0  0  0  0  0  0
   -4.1633    0.0520   -0.0009 C   0  0  0  0  0  0  0  0  0  0  0  0
   -2.7753    0.3009   -0.0002 C   0  0  0  0  0  0  0  0  0  0  0  0
   -2.1320    1.5388    0.0001 C   0  0  0  0  0  0  0  0  0  0  0  0
   -0.8563    1.7379    0.0007 N   0  0  0  0  0  0  0  0  0  0  0  0
   -2.9115    2.8289   -0.0003 N   0  0  0  0  0  0  0  0  0  0  0  0
   -3.5036    2.9030   -0.8374 H   0  0  0  0  0  0  0  0  0  0  0  0
   -3.5044    2.9031    0.8362 H   0  0  0  0  0  0  0  0  0  0  0  0
   -2.2066    3.5817   -0.0000 H   0  0  0  0  0  0  0  0  0  0  0  0
   -4.8664    0.8733   -0.0012 H   0  0  0  0  0  0  0  0  0  0  0  0
   -5.6763   -1.4364   -0.0016 H   0  0  0  0  0  0  0  0  0  0  0  0
   -4.1039   -3.3222   -0.0009 H   0  0  0  0  0  0  0  0  0  0  0  0
   -1.6611   -2.9309    0.0003 H   0  0  0  0  0  0  0  0  0  0  0  0
    1.4670    1.8955    0.0015 H   0  0  0  0  0  0  0  0  0  0  0  0
    1.2891   -1.7684    0.0031 H   0  0  0  0  0  0  0  0  0  0  0  0
    3.3067   -3.1820    0.0011 H   0  0  0  0  0  0  0  0  0  0  0  0
    5.5452   -2.1302   -0.0023 H   0  0  0  0  0  0  0  0  0  0  0  0
    5.7439    0.3167   -0.0031 H   0  0  0  0  0  0  0  0  0  0  0  0
    4.8531    2.4300   -0.0007 H   0  0  0  0  0  0  0  0  0  0  0  0
    3.3474    2.6146    0.8864 H   0  0  0  0  0  0  0  0  0  0  0  0
    3.3483    2.6137   -0.8895 H   0  0  0  0  0  0  0  0  0  0  0  0
  1  2  1  0
  1 32  1  0
  1 33  1  0
  1 34  1  0
  2  3  2  0
  2  7  1  0
  3  4  1  0
  3 31  1  0
  4  5  2  0
  4 30  1  0
  5  6  1  0
  5 29  1  0
  6  7  2  0
  6 28  1  0
  7  8  1  0
  8  9  1  0
  8 27  1  0
  9 10  2  0
  9 18  1  0
 10 11  1  0
 11 12  2  0
 11 16  1  0
 12 13  1  0
 12 26  1  0
 13 14  2  0
 13 25  1  0
 14 15  1  0
 14 24  1  0
 15 16  2  0
 15 23  1  0
 16 17  1  0
 17 18  2  0
 17 19  1  0
 19 20  1  0
 19 21  1  0
 19 22  1  0
M  CHG  1  19   1
M  END
$$$$

     RDKit          3D

 34 36  0  0  0  0  0  0  0  0999 V2000
    3.6999   -0.1523   -1.9893 C   0  0  0  0  0  0  0  0  0  0  0  0
    3.5928    0.2482   -0.5491 C   0  0  0  0  0  0  0  0  0  0  0  0
    4.6818    0.7887    0.1189 C   0  0  0  0  0  0  0  0  0  0  0  0
    4.5995    1.1620    1.4492 C   0  0  0  0  0  0  0  0  0  0  0  0
    3.4135    0.9871    2.1400 C   0  0  0  0  0  0  0  0  0  0  0  0
    2.3146    0.4472    1.4976 C   0  0  0  0  0  0  0  0  0  0  0  0
    2.3935    0.0882    0.1576 C   0  0  0  0  0  0  0  0  0  0  0  0
    1.2993   -0.4798   -0.5152 N   0  0  0  0  0  0  0  0  0  0  0  0
   -0.0083   -0.3174   -0.3103 C   0  0  0  0  0  0  0  0  0  0  0  0
   -0.8330   -1.0155   -1.0795 N   0  0  0  0  0  0  0  0  0  0  0  0
   -2.1448   -0.8837   -0.9223 C   0  0  0  0  0  0  0  0  0  0  0  0
   -3.0342   -1.6297   -1.7297 C   0  0  0  0  0  0  0  0  0  0  0  0
   -4.3823   -1.4978   -1.5667 C   0  0  0  0  0  0  0  0  0  0  0  0
   -4.9225   -0.6225   -0.6012 C   0  0  0  0  0  0  0  0  0  0  0  0
   -4.1056    0.1213    0.2002 C   0  0  0  0  0  0  0  0  0  0  0  0
   -2.7055    0.0114    0.0607 C   0  0  0  0  0  0  0  0  0  0  0  0
   -1.7229    0.6920    0.7758 C   0  0  0  0  0  0  0  0  0  0  0  0
   -0.4435    0.5640    0.6357 N   0  0  0  0  0  0  0  0  0  0  0  0
   -2.0661    1.7077    1.8328 N   0  0  0  0  0  0  0  0  0  0  0  0
   -1.1587    2.0731    2.1627 H   0  0  0  0  0  0  0  0  0  0  0  0
   -2.6324    2.4725    1.4443 H   0  0  0  0  0  0  0  0  0  0  0  0
   -2.5765    1.2769    2.6143 H   0  0  0  0  0  0  0  0  0  0  0  0
   -4.5298    0.7880    0.9380 H   0  0  0  0  0  0  0  0  0  0  0  0
   -5.9936   -0.5456   -0.5015 H   0  0  0  0  0  0  0  0  0  0  0  0
   -5.0581   -2.0703   -2.1829 H   0  0  0  0  0  0  0  0  0  0  0  0
   -2.6084   -2.2957   -2.4617 H   0  0  0  0  0  0  0  0  0  0  0  0
    1.5180   -1.0835   -1.2980 H   0  0  0  0  0  0  0  0  0  0  0  0
    1.3967    0.2794    2.0370 H   0  0  0  0  0  0  0  0  0  0  0  0
    3.3460    1.2589    3.1822 H   0  0  0  0  0  0  0  0  0  0  0  0
    5.4605    1.5805    1.9458 H   0  0  0  0  0  0  0  0  0  0  0  0
    5.6111    0.9191   -0.4145 H   0  0  0  0  0  0  0  0  0  0  0  0
    3.5981   -1.2326   -2.1021 H   0  0  0  0  0  0  0  0  0  0  0  0
    4.6703    0.1316   -2.3861 H   0  0  0  0  0  0  0  0  0  0  0  0
    2.9306    0.3314   -2.5905 H   0  0  0  0  0  0  0  0  0  0  0  0
  1  2  1  0
  1 32  1  0
  1 33  1  0
  1 34  1  0
  2  3  2  0
  2  7  1  0
  3  4  1  0
  3 31  1  0
  4  5  2  0
  4 30  1  0
  5  6  1  0
  5 29  1  0
  6  7  2  0
  6 28  1  0
  7  8  1  0
  8  9  1  0
  8 27  1  0
  9 10  2  0
  9 18  1  0
 10 11  1  0
 11 12  2  0
 11 16  1  0
 12 13  1  0
 12 26  1  0
 13 14  2  0
 13 25  1  0
 14 15  1  0
 14 24  1  0
 15 16  2  0
 15 23  1  0
 16 17  1  0
 17 18  2  0
 17 19  1  0
 19 20  1  0
 19 21  1  0
 19 22  1  0
M  CHG  1  19   1
M  END
$$$$

     RDKit          3D

 34 36  0  0  0  0  0  0  0  0999 V2000
    3.8348   -1.6955   -0.3149 C   0  0  0  0  0  0  0  0  0  0  0  0
    3.6653   -0.2219   -0.0893 C   0  0  0  0  0  0  0  0  0  0  0  0
    4.7769    0.6038   -0.0163 C   0  0  0  0  0  0  0  0  0  0  0  0
    4.6546    1.9667    0.1926 C   0  0  0  0  0  0  0  0  0  0  0  0
    3.3979    2.5254    0.3369 C   0  0  0  0  0  0  0  0  0  0  0  0
    2.2727    1.7247    0.2688 C   0  0  0  0  0  0  0  0  0  0  0  0
    2.3939    0.3567    0.0531 C   0  0  0  0  0  0  0  0  0  0  0  0
    1.2858   -0.4956   -0.0257 N   0  0  0  0  0  0  0  0  0  0  0  0
   -0.0308   -0.2812   -0.0096 C   0  0  0  0  0  0  0  0  0  0  0  0
   -0.7968   -1.3615   -0.1230 N   0  0  0  0  0  0  0  0  0  0  0  0
   -2.1170   -1.2368   -0.1188 C   0  0  0  0  0  0  0  0  0  0  0  0
   -2.9393   -2.3814   -0.2424 C   0  0  0  0  0  0  0  0  0  0  0  0
   -4.2970   -2.2528   -0.2392 C   0  0  0  0  0  0  0  0  0  0  0  0
   -4.9145   -0.9901   -0.1128 C   0  0  0  0  0  0  0  0  0  0  0  0
   -4.1651    0.1438    0.0091 C   0  0  0  0  0  0  0  0  0  0  0  0
   -2.7565    0.0506    0.0081 C   0  0  0  0  0  0  0  0  0  0  0  0
   -1.8345    1.0878    0.1158 C   0  0  0  0  0  0  0  0  0  0  0  0
   -0.5448    0.9762    0.1114 N   0  0  0  0  0  0  0  0  0  0  0  0
   -2.2711    2.5221    0.2535 N   0  0  0  0  0  0  0  0  0  0  0  0
   -2.8396    2.8163   -0.5509 H   0  0  0  0  0  0  0  0  0  0  0  0
   -2.8126    2.6639    1.1159 H   0  0  0  0  0  0  0  0  0  0  0  0
   -1.4014    3.0759    0.2911 H   0  0  0  0  0  0  0  0  0  0  0  0
   -4.6489    1.1058    0.1057 H   0  0  0  0  0  0  0  0  0  0  0  0
   -5.9912   -0.9290   -0.1138 H   0  0  0  0  0  0  0  0  0  0  0  0
   -4.9215   -3.1274   -0.3344 H   0  0  0  0  0  0  0  0  0  0  0  0
   -2.4549   -3.3390   -0.3376 H   0  0  0  0  0  0  0  0  0  0  0  0
    1.5127   -1.4776   -0.1318 H   0  0  0  0  0  0  0  0  0  0  0  0
    1.2939    2.1556    0.3865 H   0  0  0  0  0  0  0  0  0  0  0  0
    3.2904    3.5861    0.5044 H   0  0  0  0  0  0  0  0  0  0  0  0
    5.5357    2.5862    0.2440 H   0  0  0  0  0  0  0  0  0  0  0  0
    5.7589    0.1692   -0.1256 H   0  0  0  0  0  0  0  0  0  0  0  0
    3.3389   -2.0157   -1.2317 H   0  0  0  0  0  0  0  0  0  0  0  0
    3.4355   -2.2716    0.5207 H   0  0  0  0  0  0  0  0  0  0  0  0
    4.8899   -1.9366   -0.4075 H   0  0  0  0  0  0  0  0  0  0  0  0
  1  2  1  0
  1 32  1  0
  1 33  1  0
  1 34  1  0
  2  3  2  0
  2  7  1  0
  3  4  1  0
  3 31  1  0
  4  5  2  0
  4 30  1  0
  5  6  1  0
  5 29  1  0
  6  7  2  0
  6 28  1  0
  7  8  1  0
  8  9  1  0
  8 27  1  0
  9 10  2  0
  9 18  1  0
 10 11  1  0
 11 12  2  0
 11 16  1  0
 12 13  1  0
 12 26  1  0
 13 14  2  0
 13 25  1  0
 14 15  1  0
 14 24  1  0
 15 16  2  0
 15 23  1  0
 16 17  1  0
 17 18  2  0
 17 19  1  0
 19 20  1  0
 19 21  1  0
 19 22  1  0
M  CHG  1  19   1
M  END
$$$$

     RDKit          3D

 34 36  0  0  0  0  0  0  0  0999 V2000
    3.8015    2.1663    0.0809 C   0  0  0  0  0  0  0  0  0  0  0  0
    3.6457    0.6731    0.0411 C   0  0  0  0  0  0  0  0  0  0  0  0
    4.7666   -0.1431    0.0563 C   0  0  0  0  0  0  0  0  0  0  0  0
    4.6561   -1.5225    0.0211 C   0  0  0  0  0  0  0  0  0  0  0  0
    3.4039   -2.1086   -0.0305 C   0  0  0  0  0  0  0  0  0  0  0  0
    2.2685   -1.3197   -0.0466 C   0  0  0  0  0  0  0  0  0  0  0  0
    2.3821    0.0654   -0.0108 C   0  0  0  0  0  0  0  0  0  0  0  0
    1.2588    0.9071   -0.0291 N   0  0  0  0  0  0  0  0  0  0  0  0
   -0.0443    0.6269   -0.0272 C   0  0  0  0  0  0  0  0  0  0  0  0
   -0.5266   -0.6023   -0.0054 N   0  0  0  0  0  0  0  0  0  0  0  0
   -1.8417   -0.7925   -0.0007 C   0  0  0  0  0  0  0  0  0  0  0  0
   -2.3587   -2.1076    0.0252 C   0  0  0  0  0  0  0  0  0  0  0  0
   -3.7074   -2.3148    0.0310 C   0  0  0  0  0  0  0  0  0  0  0  0
   -4.6131   -1.2348    0.0111 C   0  0  0  0  0  0  0  0  0  0  0  0
   -4.1607    0.0534   -0.0145 C   0  0  0  0  0  0  0  0  0  0  0  0
   -2.7730    0.3078   -0.0209 C   0  0  0  0  0  0  0  0  0  0  0  0
   -2.1267    1.5453   -0.0447 C   0  0  0  0  0  0  0  0  0  0  0  0
   -0.8509    1.7399   -0.0478 N   0  0  0  0  0  0  0  0  0  0  0  0
   -2.9205    2.8277   -0.0696 N   0  0  0  0  0  0  0  0  0  0  0  0
   -2.6666    3.4006    0.7459 H   0  0  0  0  0  0  0  0  0  0  0  0
   -2.6772    3.3623   -0.9138 H   0  0  0  0  0  0  0  0  0  0  0  0
   -3.9260    2.6101   -0.0585 H   0  0  0  0  0  0  0  0  0  0  0  0
   -4.8760    0.8667   -0.0294 H   0  0  0  0  0  0  0  0  0  0  0  0
   -5.6727   -1.4354    0.0164 H   0  0  0  0  0  0  0  0  0  0  0  0
   -4.0989   -3.3199    0.0514 H   0  0  0  0  0  0  0  0  0  0  0  0
   -1.6557   -2.9240    0.0408 H   0  0  0  0  0  0  0  0  0  0  0  0
    1.4701    1.8967   -0.0393 H   0  0  0  0  0  0  0  0  0  0  0  0
    1.2906   -1.7664   -0.0866 H   0  0  0  0  0  0  0  0  0  0  0  0
    3.3064   -3.1824   -0.0588 H   0  0  0  0  0  0  0  0  0  0  0  0
    5.5444   -2.1341    0.0341 H   0  0  0  0  0  0  0  0  0  0  0  0
    5.7449    0.3119    0.0968 H   0  0  0  0  0  0  0  0  0  0  0  0
    3.3905    2.6315   -0.8162 H   0  0  0  0  0  0  0  0  0  0  0  0
    4.8550    2.4259    0.1329 H   0  0  0  0  0  0  0  0  0  0  0  0
    3.3117    2.5927    0.9573 H   0  0  0  0  0  0  0  0  0  0  0  0
  1  2  1  0
  1 32  1  0
  1 33  1  0
  1 34  1  0
  2  3  2  0
  2  7  1  0
  3  4  1  0
  3 31  1  0
  4  5  2  0
  4 30  1  0
  5  6  1  0
  5 29  1  0
  6  7  2  0
  6 28  1  0
  7  8  1  0
  8  9  1  0
  8 27  1  0
  9 10  2  0
  9 18  1  0
 10 11  1  0
 11 12  2  0
 11 16  1  0
 12 13  1  0
 12 26  1  0
 13 14  2  0
 13 25  1  0
 14 15  1  0
 14 24  1  0
 15 16  2  0
 15 23  1  0
 16 17  1  0
 17 18  2  0
 17 19  1  0
 19 20  1  0
 19 21  1  0
 19 22  1  0
M  CHG  1  19   1
M  END
$$$$

     RDKit          3D

 34 36  0  0  0  0  0  0  0  0999 V2000
    2.0959    0.2974    1.7956 C   0  0  0  0  0  0  0  0  0  0  0  0
    2.8549   -0.1167    0.5760 C   0  0  0  0  0  0  0  0  0  0  0  0
    3.9684   -0.9422    0.6909 C   0  0  0  0  0  0  0  0  0  0  0  0
    4.7205   -1.3028   -0.4109 C   0  0  0  0  0  0  0  0  0  0  0  0
    4.3791   -0.8274   -1.6665 C   0  0  0  0  0  0  0  0  0  0  0  0
    3.2732   -0.0128   -1.8078 C   0  0  0  0  0  0  0  0  0  0  0  0
    2.5027    0.3239   -0.6999 C   0  0  0  0  0  0  0  0  0  0  0  0
    1.3845    1.1718   -0.9121 N   0  0  0  0  0  0  0  0  0  0  0  0
    0.1212    0.9010   -0.5888 C   0  0  0  0  0  0  0  0  0  0  0  0
   -0.2073   -0.2168    0.0326 N   0  0  0  0  0  0  0  0  0  0  0  0
   -1.4806   -0.4431    0.3389 C   0  0  0  0  0  0  0  0  0  0  0  0
   -1.8441   -1.6369    1.0022 C   0  0  0  0  0  0  0  0  0  0  0  0
   -3.1502   -1.8761    1.3172 C   0  0  0  0  0  0  0  0  0  0  0  0
   -4.1630   -0.9493    0.9952 C   0  0  0  0  0  0  0  0  0  0  0  0
   -3.8619    0.2172    0.3532 C   0  0  0  0  0  0  0  0  0  0  0  0
   -2.5220    0.4976    0.0102 C   0  0  0  0  0  0  0  0  0  0  0  0
   -2.0312    1.6235   -0.6492 C   0  0  0  0  0  0  0  0  0  0  0  0
   -0.7960    1.8543   -0.9530 N   0  0  0  0  0  0  0  0  0  0  0  0
   -2.9436    2.7344   -1.1003 N   0  0  0  0  0  0  0  0  0  0  0  0
   -3.4267    3.1653   -0.3018 H   0  0  0  0  0  0  0  0  0  0  0  0
   -2.3308    3.4278   -1.5564 H   0  0  0  0  0  0  0  0  0  0  0  0
   -3.6443    2.3910   -1.7696 H   0  0  0  0  0  0  0  0  0  0  0  0
   -4.6466    0.9202    0.1106 H   0  0  0  0  0  0  0  0  0  0  0  0
   -5.1842   -1.1716    1.2614 H   0  0  0  0  0  0  0  0  0  0  0  0
   -3.4241   -2.7890    1.8228 H   0  0  0  0  0  0  0  0  0  0  0  0
   -1.0604   -2.3373    1.2398 H   0  0  0  0  0  0  0  0  0  0  0  0
    1.5249    1.9688   -1.5182 H   0  0  0  0  0  0  0  0  0  0  0  0
    2.9932    0.3618   -2.7818 H   0  0  0  0  0  0  0  0  0  0  0  0
    4.9691   -1.0901   -2.5304 H   0  0  0  0  0  0  0  0  0  0  0  0
    5.5806   -1.9426   -0.2902 H   0  0  0  0  0  0  0  0  0  0  0  0
    4.2536   -1.2959    1.6703 H   0  0  0  0  0  0  0  0  0  0  0  0
    1.1923   -0.3032    1.8945 H   0  0  0  0  0  0  0  0  0  0  0  0
    1.7988    1.3430    1.7328 H   0  0  0  0  0  0  0  0  0  0  0  0
    2.7043    0.1577    2.6848 H   0  0  0  0  0  0  0  0  0  0  0  0
  1  2  1  0
  1 32  1  0
  1 33  1  0
  1 34  1  0
  2  3  2  0
  2  7  1  0
  3  4  1  0
  3 31  1  0
  4  5  2  0
  4 30  1  0
  5  6  1  0
  5 29  1  0
  6  7  2  0
  6 28  1  0
  7  8  1  0
  8  9  1  0
  8 27  1  0
  9 10  2  0
  9 18  1  0
 10 11  1  0
 11 12  2  0
 11 16  1  0
 12 13  1  0
 12 26  1  0
 13 14  2  0
 13 25  1  0
 14 15  1  0
 14 24  1  0
 15 16  2  0
 15 23  1  0
 16 17  1  0
 17 18  2  0
 17 19  1  0
 19 20  1  0
 19 21  1  0
 19 22  1  0
M  CHG  1  19   1
M  END
$$$$

     RDKit          3D

 34 36  0  0  0  0  0  0  0  0999 V2000
    2.1327    1.3890    1.4047 C   0  0  0  0  0  0  0  0  0  0  0  0
    2.8989    0.6129    0.3777 C   0  0  0  0  0  0  0  0  0  0  0  0
    4.0782    1.1252   -0.1515 C   0  0  0  0  0  0  0  0  0  0  0  0
    4.8342    0.4068   -1.0592 C   0  0  0  0  0  0  0  0  0  0  0  0
    4.4275   -0.8584   -1.4499 C   0  0  0  0  0  0  0  0  0  0  0  0
    3.2545   -1.3846   -0.9438 C   0  0  0  0  0  0  0  0  0  0  0  0
    2.4842   -0.6486   -0.0506 C   0  0  0  0  0  0  0  0  0  0  0  0
    1.2927   -1.2354    0.4463 N   0  0  0  0  0  0  0  0  0  0  0  0
    0.0605   -0.7522    0.3006 C   0  0  0  0  0  0  0  0  0  0  0  0
   -0.9489   -1.4337    0.8183 N   0  0  0  0  0  0  0  0  0  0  0  0
   -2.1876   -0.9751    0.6757 C   0  0  0  0  0  0  0  0  0  0  0  0
   -3.2753   -1.6895    1.2281 C   0  0  0  0  0  0  0  0  0  0  0  0
   -4.5484   -1.2221    1.0795 C   0  0  0  0  0  0  0  0  0  0  0  0
   -4.8135   -0.0272    0.3780 C   0  0  0  0  0  0  0  0  0  0  0  0
   -3.7975    0.6977   -0.1739 C   0  0  0  0  0  0  0  0  0  0  0  0
   -2.4667    0.2457   -0.0400 C   0  0  0  0  0  0  0  0  0  0  0  0
   -1.3116    0.8438   -0.5375 C   0  0  0  0  0  0  0  0  0  0  0  0
   -0.1007    0.4113   -0.3971 N   0  0  0  0  0  0  0  0  0  0  0  0
   -1.3581    2.1152   -1.3442 N   0  0  0  0  0  0  0  0  0  0  0  0
   -1.7366    2.8962   -0.7934 H   0  0  0  0  0  0  0  0  0  0  0  0
   -0.3774    2.3065   -1.6040 H   0  0  0  0  0  0  0  0  0  0  0  0
   -1.9282    1.9966   -2.1913 H   0  0  0  0  0  0  0  0  0  0  0  0
   -4.0118    1.6128   -0.7081 H   0  0  0  0  0  0  0  0  0  0  0  0
   -5.8332    0.3106    0.2810 H   0  0  0  0  0  0  0  0  0  0  0  0
   -5.3763   -1.7691    1.5030 H   0  0  0  0  0  0  0  0  0  0  0  0
   -3.0580   -2.5999    1.7616 H   0  0  0  0  0  0  0  0  0  0  0  0
    1.3488   -2.1639    0.8432 H   0  0  0  0  0  0  0  0  0  0  0  0
    2.9246   -2.3697   -1.2383 H   0  0  0  0  0  0  0  0  0  0  0  0
    5.0213   -1.4334   -2.1426 H   0  0  0  0  0  0  0  0  0  0  0  0
    5.7486    0.8259   -1.4488 H   0  0  0  0  0  0  0  0  0  0  0  0
    4.4154    2.0988    0.1720 H   0  0  0  0  0  0  0  0  0  0  0  0
    2.7948    2.0739    1.9273 H   0  0  0  0  0  0  0  0  0  0  0  0
    1.6732    0.7229    2.1320 H   0  0  0  0  0  0  0  0  0  0  0  0
    1.3400    1.9735    0.9372 H   0  0  0  0  0  0  0  0  0  0  0  0
  1  2  1  0
  1 32  1  0
  1 33  1  0
  1 34  1  0
  2  3  2  0
  2  7  1  0
  3  4  1  0
  3 31  1  0
  4  5  2  0
  4 30  1  0
  5  6  1  0
  5 29  1  0
  6  7  2  0
  6 28  1  0
  7  8  1  0
  8  9  1  0
  8 27  1  0
  9 10  2  0
  9 18  1  0
 10 11  1  0
 11 12  2  0
 11 16  1  0
 12 13  1  0
 12 26  1  0
 13 14  2  0
 13 25  1  0
 14 15  1  0
 14 24  1  0
 15 16  2  0
 15 23  1  0
 16 17  1  0
 17 18  2  0
 17 19  1  0
 19 20  1  0
 19 21  1  0
 19 22  1  0
M  CHG  1  19   1
M  END
$$$$

     RDKit          3D

 34 36  0  0  0  0  0  0  0  0999 V2000
    2.7699    1.2413    1.5995 C   0  0  0  0  0  0  0  0  0  0  0  0
    3.1245    0.2467    0.5381 C   0  0  0  0  0  0  0  0  0  0  0  0
    4.1517   -0.6705    0.7171 C   0  0  0  0  0  0  0  0  0  0  0  0
    4.4665   -1.5929   -0.2651 C   0  0  0  0  0  0  0  0  0  0  0  0
    3.7540   -1.6167   -1.4516 C   0  0  0  0  0  0  0  0  0  0  0  0
    2.7280   -0.7107   -1.6517 C   0  0  0  0  0  0  0  0  0  0  0  0
    2.4215    0.2127   -0.6648 C   0  0  0  0  0  0  0  0  0  0  0  0
    1.3644    1.1480   -0.8938 N   0  0  0  0  0  0  0  0  0  0  0  0
    0.0982    0.8878   -0.5923 C   0  0  0  0  0  0  0  0  0  0  0  0
   -0.2240   -0.2591   -0.0216 N   0  0  0  0  0  0  0  0  0  0  0  0
   -1.4954   -0.5073    0.2686 C   0  0  0  0  0  0  0  0  0  0  0  0
   -1.8544   -1.7310    0.8786 C   0  0  0  0  0  0  0  0  0  0  0  0
   -3.1601   -1.9911    1.1760 C   0  0  0  0  0  0  0  0  0  0  0  0
   -4.1778   -1.0575    0.8879 C   0  0  0  0  0  0  0  0  0  0  0  0
   -3.8815    0.1384    0.3014 C   0  0  0  0  0  0  0  0  0  0  0  0
   -2.5409    0.4432   -0.0209 C   0  0  0  0  0  0  0  0  0  0  0  0
   -2.0536    1.6052   -0.6144 C   0  0  0  0  0  0  0  0  0  0  0  0
   -0.8180    1.8603   -0.9014 N   0  0  0  0  0  0  0  0  0  0  0  0
   -2.9690    2.7383   -1.0011 N   0  0  0  0  0  0  0  0  0  0  0  0
   -3.4585    3.1179   -0.1808 H   0  0  0  0  0  0  0  0  0  0  0  0
   -2.3561    3.4598   -1.4114 H   0  0  0  0  0  0  0  0  0  0  0  0
   -3.6641    2.4332   -1.6942 H   0  0  0  0  0  0  0  0  0  0  0  0
   -4.6697    0.8463    0.0852 H   0  0  0  0  0  0  0  0  0  0  0  0
   -5.1990   -1.2988    1.1370 H   0  0  0  0  0  0  0  0  0  0  0  0
   -3.4315   -2.9264    1.6404 H   0  0  0  0  0  0  0  0  0  0  0  0
   -1.0650   -2.4330    1.0906 H   0  0  0  0  0  0  0  0  0  0  0  0
    1.5783    2.0390   -1.3177 H   0  0  0  0  0  0  0  0  0  0  0  0
    2.1609   -0.7147   -2.5704 H   0  0  0  0  0  0  0  0  0  0  0  0
    3.9949   -2.3355   -2.2189 H   0  0  0  0  0  0  0  0  0  0  0  0
    5.2694   -2.2952   -0.1035 H   0  0  0  0  0  0  0  0  0  0  0  0
    4.7105   -0.6600    1.6408 H   0  0  0  0  0  0  0  0  0  0  0  0
    2.8646    2.2594    1.2228 H   0  0  0  0  0  0  0  0  0  0  0  0
    3.4218    1.1304    2.4608 H   0  0  0  0  0  0  0  0  0  0  0  0
    1.7397    1.0953    1.9231 H   0  0  0  0  0  0  0  0  0  0  0  0
  1  2  1  0
  1 32  1  0
  1 33  1  0
  1 34  1  0
  2  3  2  0
  2  7  1  0
  3  4  1  0
  3 31  1  0
  4  5  2  0
  4 30  1  0
  5  6  1  0
  5 29  1  0
  6  7  2  0
  6 28  1  0
  7  8  1  0
  8  9  1  0
  8 27  1  0
  9 10  2  0
  9 18  1  0
 10 11  1  0
 11 12  2  0
 11 16  1  0
 12 13  1  0
 12 26  1  0
 13 14  2  0
 13 25  1  0
 14 15  1  0
 14 24  1  0
 15 16  2  0
 15 23  1  0
 16 17  1  0
 17 18  2  0
 17 19  1  0
 19 20  1  0
 19 21  1  0
 19 22  1  0
M  CHG  1  19   1
M  END
$$$$
