
     RDKit          3D

 33 35  0  0  0  0  0  0  0  0999 V2000
    0.4168    1.8344   -0.1288 C   0  0  0  0  0  0  0  0  0  0  0  0
    1.0000    1.0000    1.0000 C   0  0  0  0  0  0  0  0  0  0  0  0
    1.8780    1.8780    1.8780 C   0  0  0  0  0  0  0  0  0  0  0  0
    2.3917    1.4144    3.0612 C   0  0  0  0  0  0  0  0  0  0  0  0
    2.0950   -0.0027    3.5244 C   0  0  0  0  0  0  0  0  0  0  0  0
    3.1758    2.2549    3.8086 N   0  0  0  0  0  0  0  0  0  0  0  0
    3.4384    3.4889    3.4042 C   0  0  0  0  0  0  0  0  0  0  0  0
    4.1736    4.4855    3.9715 N   0  0  0  0  0  0  0  0  0  0  0  0
    4.1803    5.5641    3.2218 N   0  0  0  0  0  0  0  0  0  0  0  0
    3.4538    5.3013    2.1645 C   0  0  0  0  0  0  0  0  0  0  0  0
    3.2176    6.2431    1.0873 C   0  0  0  0  0  0  0  0  0  0  0  0
    2.3944    5.8822    0.0256 C   0  0  0  0  0  0  0  0  0  0  0  0
    2.1740    6.7915   -1.0035 C   0  0  0  0  0  0  0  0  0  0  0  0
    2.7737    8.0467   -0.9640 C   0  0  0  0  0  0  0  0  0  0  0  0
    3.5952    8.3992    0.1017 C   0  0  0  0  0  0  0  0  0  0  0  0
    3.8215    7.4954    1.1349 C   0  0  0  0  0  0  0  0  0  0  0  0
    2.9741    4.0243    2.2492 N   0  0  0  0  0  0  0  0  0  0  0  0
    2.1799    3.2074    1.4775 C   0  0  0  0  0  0  0  0  0  0  0  0
    1.7044    3.5891    0.4185 O   0  0  0  0  0  0  0  0  0  0  0  0
    4.6483    4.4060    4.8481 H   0  0  0  0  0  0  0  0  0  0  0  0
   -0.1605    1.2570   -0.7061 H   0  0  0  0  0  0  0  0  0  0  0  0
   -0.1321    2.5770    0.2549 H   0  0  0  0  0  0  0  0  0  0  0  0
    1.1595    2.2180   -0.6777 H   0  0  0  0  0  0  0  0  0  0  0  0
    0.2574    0.6163    1.5489 H   0  0  0  0  0  0  0  0  0  0  0  0
    1.5489    0.2574    0.6163 H   0  0  0  0  0  0  0  0  0  0  0  0
    1.5112   -0.4579    2.8520 H   0  0  0  0  0  0  0  0  0  0  0  0
    2.9522   -0.5090    3.6185 H   0  0  0  0  0  0  0  0  0  0  0  0
    1.6264    0.0264    4.4074 H   0  0  0  0  0  0  0  0  0  0  0  0
    1.9659    4.9791    0.0026 H   0  0  0  0  0  0  0  0  0  0  0  0
    1.5843    6.5434   -1.7721 H   0  0  0  0  0  0  0  0  0  0  0  0
    2.6133    8.6984   -1.7055 H   0  0  0  0  0  0  0  0  0  0  0  0
    4.0234    9.3026    0.1252 H   0  0  0  0  0  0  0  0  0  0  0  0
    4.4117    7.7432    1.9031 H   0  0  0  0  0  0  0  0  0  0  0  0
  1  2  1  0
  2  3  1  0
  3  4  2  0
  4  5  1  0
  4  6  1  0
  6  7  2  0
  7  8  1  0
  8  9  1  0
  9 10  2  0
 10 11  1  0
 11 12  2  0
 12 13  1  0
 13 14  2  0
 14 15  1  0
 15 16  2  0
 16 11  1  0
 10 17  1  0
 17  7  1  0
 17 18  1  0
 18  3  1  0
 18 19  2  0
  8 20  1  0
  1 21  1  0
  1 22  1  0
  1 23  1  0
  2 24  1  0
  2 25  1  0
  5 26  1  0
  5 27  1  0
  5 28  1  0
 12 29  1  0
 13 30  1  0
 14 31  1  0
 15 32  1  0
 16 33  1  0
M  END
$$$$

     RDKit          3D

 33 35  0  0  0  0  0  0  0  0999 V2000
    1.3781    1.2831   -0.4908 C   0  0  0  0  0  0  0  0  0  0  0  0
    0.9641    1.0501    0.9531 C   0  0  0  0  0  0  0  0  0  0  0  0
    1.7981    1.9328    1.8684 C   0  0  0  0  0  0  0  0  0  0  0  0
    2.2947    1.4598    3.0552 C   0  0  0  0  0  0  0  0  0  0  0  0
    2.0230    0.0272    3.4847 C   0  0  0  0  0  0  0  0  0  0  0  0
    3.0390    2.3053    3.8369 N   0  0  0  0  0  0  0  0  0  0  0  0
    3.2799    3.5528    3.4618 C   0  0  0  0  0  0  0  0  0  0  0  0
    3.9756    4.5565    4.0653 N   0  0  0  0  0  0  0  0  0  0  0  0
    3.9730    5.6490    3.3359 N   0  0  0  0  0  0  0  0  0  0  0  0
    3.2791    5.3883    2.2564 C   0  0  0  0  0  0  0  0  0  0  0  0
    3.0451    6.3443    1.1913 C   0  0  0  0  0  0  0  0  0  0  0  0
    2.3041    7.4932    1.4482 C   0  0  0  0  0  0  0  0  0  0  0  0
    2.0839    8.4043    0.4206 C   0  0  0  0  0  0  0  0  0  0  0  0
    2.6027    8.1621   -0.8478 C   0  0  0  0  0  0  0  0  0  0  0  0
    3.3427    7.0106   -1.0956 C   0  0  0  0  0  0  0  0  0  0  0  0
    3.5671    6.0938   -0.0735 C   0  0  0  0  0  0  0  0  0  0  0  0
    2.8300    4.0984    2.3058 N   0  0  0  0  0  0  0  0  0  0  0  0
    2.0757    3.2767    1.4999 C   0  0  0  0  0  0  0  0  0  0  0  0
    1.6163    3.6665    0.4368 O   0  0  0  0  0  0  0  0  0  0  0  0
    4.4310    4.4722    4.9517 H   0  0  0  0  0  0  0  0  0  0  0  0
    0.8297    0.7026   -1.0926 H   0  0  0  0  0  0  0  0  0  0  0  0
    1.2311    2.2431   -0.7289 H   0  0  0  0  0  0  0  0  0  0  0  0
    2.3460    1.0568   -0.6006 H   0  0  0  0  0  0  0  0  0  0  0  0
   -0.0038    1.2763    1.0629 H   0  0  0  0  0  0  0  0  0  0  0  0
    1.1111    0.0900    1.1912 H   0  0  0  0  0  0  0  0  0  0  0  0
    1.4673   -0.4295    2.7900 H   0  0  0  0  0  0  0  0  0  0  0  0
    2.8903   -0.4593    3.5906 H   0  0  0  0  0  0  0  0  0  0  0  0
    1.5327    0.0278    4.3563 H   0  0  0  0  0  0  0  0  0  0  0  0
    1.9340    7.6623    2.3616 H   0  0  0  0  0  0  0  0  0  0  0  0
    1.5527    9.2337    0.5932 H   0  0  0  0  0  0  0  0  0  0  0  0
    2.4428    8.8190   -1.5846 H   0  0  0  0  0  0  0  0  0  0  0  0
    3.7136    6.8417   -2.0089 H   0  0  0  0  0  0  0  0  0  0  0  0
    4.0977    5.2640   -0.2462 H   0  0  0  0  0  0  0  0  0  0  0  0
  1  2  1  0
  2  3  1  0
  3  4  2  0
  4  5  1  0
  4  6  1  0
  6  7  2  0
  7  8  1  0
  8  9  1  0
  9 10  2  0
 10 11  1  0
 11 12  2  0
 12 13  1  0
 13 14  2  0
 14 15  1  0
 15 16  2  0
 16 11  1  0
 10 17  1  0
 17  7  1  0
 17 18  1  0
 18  3  1  0
 18 19  2  0
  8 20  1  0
  1 21  1  0
  1 22  1  0
  1 23  1  0
  2 24  1  0
  2 25  1  0
  5 26  1  0
  5 27  1  0
  5 28  1  0
 12 29  1  0
 13 30  1  0
 14 31  1  0
 15 32  1  0
 16 33  1  0
M  END
$$$$

     RDKit          3D

 33 35  0  0  0  0  0  0  0  0999 V2000
    0.4312    0.0883    1.1865 C   0  0  0  0  0  0  0  0  0  0  0  0
    1.0169    1.3088    0.4953 C   0  0  0  0  0  0  0  0  0  0  0  0
    1.8182    2.1237    1.4985 C   0  0  0  0  0  0  0  0  0  0  0  0
    2.2075    1.5907    2.6998 C   0  0  0  0  0  0  0  0  0  0  0  0
    1.8464    0.1581    3.0575 C   0  0  0  0  0  0  0  0  0  0  0  0
    2.9276    2.3767    3.5623 N   0  0  0  0  0  0  0  0  0  0  0  0
    3.2464    3.6241    3.2501 C   0  0  0  0  0  0  0  0  0  0  0  0
    3.9375    4.5760    3.9370 N   0  0  0  0  0  0  0  0  0  0  0  0
    4.0329    5.6909    3.2489 N   0  0  0  0  0  0  0  0  0  0  0  0
    3.4089    5.4964    2.1143 C   0  0  0  0  0  0  0  0  0  0  0  0
    3.2924    6.4961    1.0702 C   0  0  0  0  0  0  0  0  0  0  0  0
    2.3724    6.3142    0.0427 C   0  0  0  0  0  0  0  0  0  0  0  0
    2.2680    7.2777   -0.9550 C   0  0  0  0  0  0  0  0  0  0  0  0
    3.0781    8.4086   -0.9184 C   0  0  0  0  0  0  0  0  0  0  0  0
    3.9952    8.5823    0.1130 C   0  0  0  0  0  0  0  0  0  0  0  0
    4.1066    7.6231    1.1145 C   0  0  0  0  0  0  0  0  0  0  0  0
    2.9044    4.2264    2.0854 N   0  0  0  0  0  0  0  0  0  0  0  0
    2.1771    3.4655    1.1991 C   0  0  0  0  0  0  0  0  0  0  0  0
    1.8125    3.9097    0.1207 O   0  0  0  0  0  0  0  0  0  0  0  0
    4.3235    4.4429    4.8500 H   0  0  0  0  0  0  0  0  0  0  0  0
   -0.0957   -0.4475    0.5267 H   0  0  0  0  0  0  0  0  0  0  0  0
    1.1717   -0.4729    1.5561 H   0  0  0  0  0  0  0  0  0  0  0  0
   -0.1678    0.3825    1.9312 H   0  0  0  0  0  0  0  0  0  0  0  0
    1.6158    1.0147   -0.2495 H   0  0  0  0  0  0  0  0  0  0  0  0
    0.2763    1.8700    0.1256 H   0  0  0  0  0  0  0  0  0  0  0  0
    1.3240   -0.2508    2.3091 H   0  0  0  0  0  0  0  0  0  0  0  0
    2.6828   -0.3691    3.2071 H   0  0  0  0  0  0  0  0  0  0  0  0
    1.2947    0.1517    3.8915 H   0  0  0  0  0  0  0  0  0  0  0  0
    1.7926    5.4998    0.0217 H   0  0  0  0  0  0  0  0  0  0  0  0
    1.6104    7.1579   -1.6987 H   0  0  0  0  0  0  0  0  0  0  0  0
    3.0007    9.0996   -1.6371 H   0  0  0  0  0  0  0  0  0  0  0  0
    4.5747    9.3971    0.1346 H   0  0  0  0  0  0  0  0  0  0  0  0
    4.7646    7.7425    1.8579 H   0  0  0  0  0  0  0  0  0  0  0  0
  1  2  1  0
  2  3  1  0
  3  4  2  0
  4  5  1  0
  4  6  1  0
  6  7  2  0
  7  8  1  0
  8  9  1  0
  9 10  2  0
 10 11  1  0
 11 12  2  0
 12 13  1  0
 13 14  2  0
 14 15  1  0
 15 16  2  0
 16 11  1  0
 10 17  1  0
 17  7  1  0
 17 18  1  0
 18  3  1  0
 18 19  2  0
  8 20  1  0
  1 21  1  0
  1 22  1  0
  1 23  1  0
  2 24  1  0
  2 25  1  0
  5 26  1  0
  5 27  1  0
  5 28  1  0
 12 29  1  0
 13 30  1  0
 14 31  1  0
 15 32  1  0
 16 33  1  0
M  END
$$$$

     RDKit          3D

 33 35  0  0  0  0  0  0  0  0999 V2000
    0.6183    0.0191    1.0463 C   0  0  0  0  0  0  0  0  0  0  0  0
    1.2958    1.2130    0.3934 C   0  0  0  0  0  0  0  0  0  0  0  0
    1.9246    2.0883    1.4662 C   0  0  0  0  0  0  0  0  0  0  0  0
    2.2014    1.5958    2.7151 C   0  0  0  0  0  0  0  0  0  0  0  0
    1.8860    0.1487    3.0572 C   0  0  0  0  0  0  0  0  0  0  0  0
    2.7679    2.4355    3.6393 N   0  0  0  0  0  0  0  0  0  0  0  0
    3.0469    3.6958    3.3411 C   0  0  0  0  0  0  0  0  0  0  0  0
    3.5955    4.6970    4.0843 N   0  0  0  0  0  0  0  0  0  0  0  0
    3.7049    5.8065    3.3896 N   0  0  0  0  0  0  0  0  0  0  0  0
    3.2306    5.5594    2.1943 C   0  0  0  0  0  0  0  0  0  0  0  0
    3.1784    6.5363    1.1238 C   0  0  0  0  0  0  0  0  0  0  0  0
    1.9526    6.8745    0.5598 C   0  0  0  0  0  0  0  0  0  0  0  0
    1.9120    7.8119   -0.4670 C   0  0  0  0  0  0  0  0  0  0  0  0
    3.0889    8.4007   -0.9193 C   0  0  0  0  0  0  0  0  0  0  0  0
    4.3103    8.0567   -0.3494 C   0  0  0  0  0  0  0  0  0  0  0  0
    4.3599    7.1195    0.6777 C   0  0  0  0  0  0  0  0  0  0  0  0
    2.8088    4.2608    2.1327 N   0  0  0  0  0  0  0  0  0  0  0  0
    2.2364    3.4454    1.1834 C   0  0  0  0  0  0  0  0  0  0  0  0
    1.9750    3.8523    0.0613 O   0  0  0  0  0  0  0  0  0  0  0  0
    3.8792    4.5997    5.0383 H   0  0  0  0  0  0  0  0  0  0  0  0
    0.2048   -0.5564    0.3408 H   0  0  0  0  0  0  0  0  0  0  0  0
    1.2963   -0.5119    1.5547 H   0  0  0  0  0  0  0  0  0  0  0  0
   -0.0917    0.3404    1.6729 H   0  0  0  0  0  0  0  0  0  0  0  0
    2.0058    0.8918   -0.2333 H   0  0  0  0  0  0  0  0  0  0  0  0
    0.6179    1.7439   -0.1150 H   0  0  0  0  0  0  0  0  0  0  0  0
    1.4799   -0.3011    2.2616 H   0  0  0  0  0  0  0  0  0  0  0  0
    2.7288   -0.3245    3.3135 H   0  0  0  0  0  0  0  0  0  0  0  0
    1.2418    0.1196    3.8215 H   0  0  0  0  0  0  0  0  0  0  0  0
    1.1100    6.4485    0.8890 H   0  0  0  0  0  0  0  0  0  0  0  0
    1.0366    8.0629   -0.8803 H   0  0  0  0  0  0  0  0  0  0  0  0
    3.0565    9.0743   -1.6577 H   0  0  0  0  0  0  0  0  0  0  0  0
    5.1531    8.4831   -0.6780 H   0  0  0  0  0  0  0  0  0  0  0  0
    5.2352    6.8678    1.0906 H   0  0  0  0  0  0  0  0  0  0  0  0
  1  2  1  0
  2  3  1  0
  3  4  2  0
  4  5  1  0
  4  6  1  0
  6  7  2  0
  7  8  1  0
  8  9  1  0
  9 10  2  0
 10 11  1  0
 11 12  2  0
 12 13  1  0
 13 14  2  0
 14 15  1  0
 15 16  2  0
 16 11  1  0
 10 17  1  0
 17  7  1  0
 17 18  1  0
 18  3  1  0
 18 19  2  0
  8 20  1  0
  1 21  1  0
  1 22  1  0
  1 23  1  0
  2 24  1  0
  2 25  1  0
  5 26  1  0
  5 27  1  0
  5 28  1  0
 12 29  1  0
 13 30  1  0
 14 31  1  0
 15 32  1  0
 16 33  1  0
M  END
$$$$

     RDKit          3D

 33 35  0  0  0  0  0  0  0  0999 V2000
    0.4308    0.0875    1.1887 C   0  0  0  0  0  0  0  0  0  0  0  0
    1.0096    1.3118    0.4983 C   0  0  0  0  0  0  0  0  0  0  0  0
    1.8151    2.1250    1.4995 C   0  0  0  0  0  0  0  0  0  0  0  0
    2.2072    1.5908    2.6994 C   0  0  0  0  0  0  0  0  0  0  0  0
    1.8450    0.1585    3.0574 C   0  0  0  0  0  0  0  0  0  0  0  0
    2.9310    2.3753    3.5601 N   0  0  0  0  0  0  0  0  0  0  0  0
    3.2508    3.6224    3.2477 C   0  0  0  0  0  0  0  0  0  0  0  0
    3.9454    4.5729    3.9330 N   0  0  0  0  0  0  0  0  0  0  0  0
    4.0404    5.6880    3.2452 N   0  0  0  0  0  0  0  0  0  0  0  0
    3.4127    5.4950    2.1123 C   0  0  0  0  0  0  0  0  0  0  0  0
    3.2945    6.4954    1.0690 C   0  0  0  0  0  0  0  0  0  0  0  0
    2.3833    6.3072    0.0350 C   0  0  0  0  0  0  0  0  0  0  0  0
    2.2772    7.2715   -0.9618 C   0  0  0  0  0  0  0  0  0  0  0  0
    3.0771    8.4093   -0.9178 C   0  0  0  0  0  0  0  0  0  0  0  0
    3.9855    8.5894    0.1201 C   0  0  0  0  0  0  0  0  0  0  0  0
    4.0984    7.6295    1.1208 C   0  0  0  0  0  0  0  0  0  0  0  0
    2.9062    4.2258    2.0843 N   0  0  0  0  0  0  0  0  0  0  0  0
    2.1751    3.4664    1.1997 C   0  0  0  0  0  0  0  0  0  0  0  0
    1.8080    3.9117    0.1227 O   0  0  0  0  0  0  0  0  0  0  0  0
    4.3339    4.4387    4.8447 H   0  0  0  0  0  0  0  0  0  0  0  0
   -0.0989   -0.4471    0.5302 H   0  0  0  0  0  0  0  0  0  0  0  0
    1.1749   -0.4732    1.5518 H   0  0  0  0  0  0  0  0  0  0  0  0
   -0.1644    0.3778    1.9381 H   0  0  0  0  0  0  0  0  0  0  0  0
    1.6047    1.0217   -0.2512 H   0  0  0  0  0  0  0  0  0  0  0  0
    0.2655    1.8726    0.1351 H   0  0  0  0  0  0  0  0  0  0  0  0
    1.3198   -0.2492    2.3103 H   0  0  0  0  0  0  0  0  0  0  0  0
    2.6812   -0.3700    3.2043 H   0  0  0  0  0  0  0  0  0  0  0  0
    1.2958    0.1525    3.8930 H   0  0  0  0  0  0  0  0  0  0  0  0
    1.8108    5.4878    0.0086 H   0  0  0  0  0  0  0  0  0  0  0  0
    1.6258    7.1471   -1.7103 H   0  0  0  0  0  0  0  0  0  0  0  0
    2.9985    9.1009   -1.6359 H   0  0  0  0  0  0  0  0  0  0  0  0
    4.5576    9.4092    0.1471 H   0  0  0  0  0  0  0  0  0  0  0  0
    4.7502    7.7534    1.8690 H   0  0  0  0  0  0  0  0  0  0  0  0
  1  2  1  0
  2  3  1  0
  3  4  2  0
  4  5  1  0
  4  6  1  0
  6  7  2  0
  7  8  1  0
  8  9  1  0
  9 10  2  0
 10 11  1  0
 11 12  2  0
 12 13  1  0
 13 14  2  0
 14 15  1  0
 15 16  2  0
 16 11  1  0
 10 17  1  0
 17  7  1  0
 17 18  1  0
 18  3  1  0
 18 19  2  0
  8 20  1  0
  1 21  1  0
  1 22  1  0
  1 23  1  0
  2 24  1  0
  2 25  1  0
  5 26  1  0
  5 27  1  0
  5 28  1  0
 12 29  1  0
 13 30  1  0
 14 31  1  0
 15 32  1  0
 16 33  1  0
M  END
$$$$

     RDKit          3D

 33 35  0  0  0  0  0  0  0  0999 V2000
    0.4295    0.0883    1.1894 C   0  0  0  0  0  0  0  0  0  0  0  0
    1.0089    1.3121    0.4986 C   0  0  0  0  0  0  0  0  0  0  0  0
    1.8149    2.1251    1.4997 C   0  0  0  0  0  0  0  0  0  0  0  0
    2.2073    1.5907    2.6994 C   0  0  0  0  0  0  0  0  0  0  0  0
    1.8450    0.1585    3.0574 C   0  0  0  0  0  0  0  0  0  0  0  0
    2.9315    2.3750    3.5599 N   0  0  0  0  0  0  0  0  0  0  0  0
    3.2514    3.6221    3.2473 C   0  0  0  0  0  0  0  0  0  0  0  0
    3.9464    4.5725    3.9325 N   0  0  0  0  0  0  0  0  0  0  0  0
    4.0414    5.6876    3.2446 N   0  0  0  0  0  0  0  0  0  0  0  0
    3.4133    5.4947    2.1120 C   0  0  0  0  0  0  0  0  0  0  0  0
    3.2950    6.4952    1.0688 C   0  0  0  0  0  0  0  0  0  0  0  0
    2.3856    6.3057    0.0333 C   0  0  0  0  0  0  0  0  0  0  0  0
    2.2794    7.2700   -0.9634 C   0  0  0  0  0  0  0  0  0  0  0  0
    3.0772    8.4092   -0.9179 C   0  0  0  0  0  0  0  0  0  0  0  0
    3.9837    8.5907    0.1215 C   0  0  0  0  0  0  0  0  0  0  0  0
    4.0968    7.6307    1.1221 C   0  0  0  0  0  0  0  0  0  0  0  0
    2.9066    4.2256    2.0841 N   0  0  0  0  0  0  0  0  0  0  0  0
    2.1751    3.4664    1.1997 C   0  0  0  0  0  0  0  0  0  0  0  0
    1.8076    3.9118    0.1228 O   0  0  0  0  0  0  0  0  0  0  0  0
    4.3352    4.4382    4.8440 H   0  0  0  0  0  0  0  0  0  0  0  0
   -0.1005   -0.4463    0.5311 H   0  0  0  0  0  0  0  0  0  0  0  0
    1.1732   -0.4728    1.5527 H   0  0  0  0  0  0  0  0  0  0  0  0
   -0.1655    0.3790    1.9387 H   0  0  0  0  0  0  0  0  0  0  0  0
    1.6038    1.0214   -0.2508 H   0  0  0  0  0  0  0  0  0  0  0  0
    0.2652    1.8731    0.1353 H   0  0  0  0  0  0  0  0  0  0  0  0
    1.3195   -0.2491    2.3105 H   0  0  0  0  0  0  0  0  0  0  0  0
    2.6811   -0.3701    3.2040 H   0  0  0  0  0  0  0  0  0  0  0  0
    1.2960    0.1525    3.8933 H   0  0  0  0  0  0  0  0  0  0  0  0
    1.8146    5.4852    0.0059 H   0  0  0  0  0  0  0  0  0  0  0  0
    1.6293    7.1447   -1.7129 H   0  0  0  0  0  0  0  0  0  0  0  0
    2.9985    9.1009   -1.6359 H   0  0  0  0  0  0  0  0  0  0  0  0
    4.5544    9.4114    0.1495 H   0  0  0  0  0  0  0  0  0  0  0  0
    4.7473    7.7555    1.8713 H   0  0  0  0  0  0  0  0  0  0  0  0
  1  2  1  0
  2  3  1  0
  3  4  2  0
  4  5  1  0
  4  6  1  0
  6  7  2  0
  7  8  1  0
  8  9  1  0
  9 10  2  0
 10 11  1  0
 11 12  2  0
 12 13  1  0
 13 14  2  0
 14 15  1  0
 15 16  2  0
 16 11  1  0
 10 17  1  0
 17  7  1  0
 17 18  1  0
 18  3  1  0
 18 19  2  0
  8 20  1  0
  1 21  1  0
  1 22  1  0
  1 23  1  0
  2 24  1  0
  2 25  1  0
  5 26  1  0
  5 27  1  0
  5 28  1  0
 12 29  1  0
 13 30  1  0
 14 31  1  0
 15 32  1  0
 16 33  1  0
M  END
$$$$
