
     RDKit          3D

 35 37  0  0  0  0  0  0  0  0999 V2000
   -6.9429   -0.8643   -1.1458 C   0  0  0  0  0  0  0  0  0  0  0  0
   -6.1893   -0.3959    0.0744 C   0  0  0  0  0  0  0  0  0  0  0  0
   -6.7608   -0.0770    1.0921 O   0  0  0  0  0  0  0  0  0  0  0  0
   -4.7063   -0.3383   -0.0289 C   0  0  0  0  0  0  0  0  0  0  0  0
   -4.0046    0.2658    1.0142 C   0  0  0  0  0  0  0  0  0  0  0  0
   -2.6275    0.3621    0.9952 C   0  0  0  0  0  0  0  0  0  0  0  0
   -1.9321   -0.1567   -0.0889 C   0  0  0  0  0  0  0  0  0  0  0  0
   -2.6141   -0.7732   -1.1338 C   0  0  0  0  0  0  0  0  0  0  0  0
   -3.9903   -0.8608   -1.1057 C   0  0  0  0  0  0  0  0  0  0  0  0
   -4.4981   -1.3433   -1.9256 H   0  0  0  0  0  0  0  0  0  0  0  0
   -2.0476   -1.1751   -1.9595 H   0  0  0  0  0  0  0  0  0  0  0  0
   -0.5500   -0.1569   -0.1803 O   0  0  0  0  0  0  0  0  0  0  0  0
    0.1871    0.8928    0.2481 C   0  0  0  0  0  0  0  0  0  0  0  0
   -0.2542    1.9053    0.7074 O   0  0  0  0  0  0  0  0  0  0  0  0
    1.6329    0.5833    0.0721 C   0  0  0  0  0  0  0  0  0  0  0  0
    2.1235   -0.6551    0.3111 C   0  0  0  0  0  0  0  0  0  0  0  0
    3.5243   -0.9135    0.2083 C   0  0  0  0  0  0  0  0  0  0  0  0
    4.1023   -2.1651    0.4543 C   0  0  0  0  0  0  0  0  0  0  0  0
    5.4636   -2.3320    0.3531 C   0  0  0  0  0  0  0  0  0  0  0  0
    6.2771   -1.2538    0.0087 C   0  0  0  0  0  0  0  0  0  0  0  0
    5.7332   -0.0113   -0.2381 C   0  0  0  0  0  0  0  0  0  0  0  0
    4.3537    0.1654   -0.1429 C   0  0  0  0  0  0  0  0  0  0  0  0
    3.8523    1.3902   -0.4027 O   0  0  0  0  0  0  0  0  0  0  0  0
    2.5146    1.6858   -0.3399 C   0  0  0  0  0  0  0  0  0  0  0  0
    2.1666    2.7902   -0.6473 O   0  0  0  0  0  0  0  0  0  0  0  0
    6.3471    0.8331   -0.5068 H   0  0  0  0  0  0  0  0  0  0  0  0
    7.3447   -1.3923   -0.0665 H   0  0  0  0  0  0  0  0  0  0  0  0
    5.9061   -3.2977    0.5422 H   0  0  0  0  0  0  0  0  0  0  0  0
    3.4611   -2.9911    0.7228 H   0  0  0  0  0  0  0  0  0  0  0  0
    1.4637   -1.4601    0.6038 H   0  0  0  0  0  0  0  0  0  0  0  0
   -2.1023    0.8384    1.8067 H   0  0  0  0  0  0  0  0  0  0  0  0
   -4.5676    0.6614    1.8462 H   0  0  0  0  0  0  0  0  0  0  0  0
   -6.6661   -0.2701   -2.0133 H   0  0  0  0  0  0  0  0  0  0  0  0
   -6.7094   -1.9079   -1.3468 H   0  0  0  0  0  0  0  0  0  0  0  0
   -8.0103   -0.7696   -0.9644 H   0  0  0  0  0  0  0  0  0  0  0  0
  1  2  1  0
  1 33  1  0
  1 34  1  0
  1 35  1  0
  2  3  2  0
  2  4  1  0
  4  5  2  0
  4  9  1  0
  5  6  1  0
  5 32  1  0
  6  7  2  0
  6 31  1  0
  7  8  1  0
  7 12  1  0
  8  9  2  0
  8 11  1  0
  9 10  1  0
 12 13  1  0
 13 14  2  0
 13 15  1  0
 15 16  2  0
 15 24  1  0
 16 17  1  0
 16 30  1  0
 17 18  2  0
 17 22  1  0
 18 19  1  0
 18 29  1  0
 19 20  2  0
 19 28  1  0
 20 21  1  0
 20 27  1  0
 21 22  2  0
 21 26  1  0
 22 23  1  0
 23 24  1  0
 24 25  2  0
M  END
$$$$

     RDKit          3D

 35 37  0  0  0  0  0  0  0  0999 V2000
   -6.9988   -1.0527   -0.9208 C   0  0  0  0  0  0  0  0  0  0  0  0
   -6.2339    0.1210   -0.3602 C   0  0  0  0  0  0  0  0  0  0  0  0
   -6.7984    1.1109    0.0460 O   0  0  0  0  0  0  0  0  0  0  0  0
   -4.7504    0.0084   -0.3256 C   0  0  0  0  0  0  0  0  0  0  0  0
   -4.0329    1.0532    0.2580 C   0  0  0  0  0  0  0  0  0  0  0  0
   -2.6549    1.0255    0.3321 C   0  0  0  0  0  0  0  0  0  0  0  0
   -1.9774   -0.0701   -0.1847 C   0  0  0  0  0  0  0  0  0  0  0  0
   -2.6724   -1.1170   -0.7798 C   0  0  0  0  0  0  0  0  0  0  0  0
   -4.0501   -1.0778   -0.8493 C   0  0  0  0  0  0  0  0  0  0  0  0
   -4.5705   -1.8993   -1.3154 H   0  0  0  0  0  0  0  0  0  0  0  0
   -2.1191   -1.9506   -1.1842 H   0  0  0  0  0  0  0  0  0  0  0  0
   -0.5916   -0.1580   -0.1941 O   0  0  0  0  0  0  0  0  0  0  0  0
    0.1319    0.2463    0.8621 C   0  0  0  0  0  0  0  0  0  0  0  0
   -0.3045    0.5989    1.9185 O   0  0  0  0  0  0  0  0  0  0  0  0
    1.5917    0.1466    0.5410 C   0  0  0  0  0  0  0  0  0  0  0  0
    2.2276   -1.0336    0.3943 C   0  0  0  0  0  0  0  0  0  0  0  0
    3.6386   -1.0643    0.1547 C   0  0  0  0  0  0  0  0  0  0  0  0
    4.3734   -2.2460    0.0059 C   0  0  0  0  0  0  0  0  0  0  0  0
    5.7315   -2.1969   -0.2074 C   0  0  0  0  0  0  0  0  0  0  0  0
    6.3854   -0.9684   -0.2748 C   0  0  0  0  0  0  0  0  0  0  0  0
    5.6845    0.2102   -0.1319 C   0  0  0  0  0  0  0  0  0  0  0  0
    4.3078    0.1684    0.0816 C   0  0  0  0  0  0  0  0  0  0  0  0
    3.6518    1.3435    0.2073 O   0  0  0  0  0  0  0  0  0  0  0  0
    2.3071    1.4238    0.4227 C   0  0  0  0  0  0  0  0  0  0  0  0
    1.7960    2.5096    0.4778 O   0  0  0  0  0  0  0  0  0  0  0  0
    6.1730    1.1698   -0.1815 H   0  0  0  0  0  0  0  0  0  0  0  0
    7.4512   -0.9378   -0.4403 H   0  0  0  0  0  0  0  0  0  0  0  0
    6.2944   -3.1103   -0.3215 H   0  0  0  0  0  0  0  0  0  0  0  0
    3.8560   -3.1919    0.0626 H   0  0  0  0  0  0  0  0  0  0  0  0
    1.6915   -1.9692    0.4725 H   0  0  0  0  0  0  0  0  0  0  0  0
   -2.1108    1.8399    0.7825 H   0  0  0  0  0  0  0  0  0  0  0  0
   -4.5846    1.8932    0.6525 H   0  0  0  0  0  0  0  0  0  0  0  0
   -6.7353   -1.2046   -1.9653 H   0  0  0  0  0  0  0  0  0  0  0  0
   -6.7628   -1.9568   -0.3644 H   0  0  0  0  0  0  0  0  0  0  0  0
   -8.0644   -0.8513   -0.8477 H   0  0  0  0  0  0  0  0  0  0  0  0
  1  2  1  0
  1 33  1  0
  1 34  1  0
  1 35  1  0
  2  3  2  0
  2  4  1  0
  4  5  2  0
  4  9  1  0
  5  6  1  0
  5 32  1  0
  6  7  2  0
  6 31  1  0
  7  8  1  0
  7 12  1  0
  8  9  2  0
  8 11  1  0
  9 10  1  0
 12 13  1  0
 13 14  2  0
 13 15  1  0
 15 16  2  0
 15 24  1  0
 16 17  1  0
 16 30  1  0
 17 18  2  0
 17 22  1  0
 18 19  1  0
 18 29  1  0
 19 20  2  0
 19 28  1  0
 20 21  1  0
 20 27  1  0
 21 22  2  0
 21 26  1  0
 22 23  1  0
 23 24  1  0
 24 25  2  0
M  END
$$$$

     RDKit          3D

 35 37  0  0  0  0  0  0  0  0999 V2000
   -4.4809   -2.5801    0.0074 C   0  0  0  0  0  0  0  0  0  0  0  0
   -4.6535   -1.1452    0.4430 C   0  0  0  0  0  0  0  0  0  0  0  0
   -5.6184   -0.7866    1.0786 O   0  0  0  0  0  0  0  0  0  0  0  0
   -3.5817   -0.1885    0.0592 C   0  0  0  0  0  0  0  0  0  0  0  0
   -3.6411    1.1029    0.5885 C   0  0  0  0  0  0  0  0  0  0  0  0
   -2.6792    2.0409    0.2869 C   0  0  0  0  0  0  0  0  0  0  0  0
   -1.6309    1.6956   -0.5582 C   0  0  0  0  0  0  0  0  0  0  0  0
   -1.5723    0.4245   -1.1196 C   0  0  0  0  0  0  0  0  0  0  0  0
   -2.5371   -0.5126   -0.8033 C   0  0  0  0  0  0  0  0  0  0  0  0
   -2.4714   -1.4927   -1.2490 H   0  0  0  0  0  0  0  0  0  0  0  0
   -0.7811    0.1754   -1.8130 H   0  0  0  0  0  0  0  0  0  0  0  0
   -0.7189    2.6733   -0.8794 O   0  0  0  0  0  0  0  0  0  0  0  0
    0.5960    2.4510   -0.9956 C   0  0  0  0  0  0  0  0  0  0  0  0
    1.2916    3.2511   -1.5616 O   0  0  0  0  0  0  0  0  0  0  0  0
    1.1781    1.2079   -0.3947 C   0  0  0  0  0  0  0  0  0  0  0  0
    2.2002    0.5916   -1.0366 C   0  0  0  0  0  0  0  0  0  0  0  0
    2.8137   -0.5708   -0.4825 C   0  0  0  0  0  0  0  0  0  0  0  0
    3.8541   -1.2728   -1.1044 C   0  0  0  0  0  0  0  0  0  0  0  0
    4.3847   -2.3936   -0.5101 C   0  0  0  0  0  0  0  0  0  0  0  0
    3.8882   -2.8396    0.7140 C   0  0  0  0  0  0  0  0  0  0  0  0
    2.8656   -2.1662    1.3477 C   0  0  0  0  0  0  0  0  0  0  0  0
    2.3258   -1.0265    0.7543 C   0  0  0  0  0  0  0  0  0  0  0  0
    1.3370   -0.3781    1.4075 O   0  0  0  0  0  0  0  0  0  0  0  0
    0.7410    0.7528    0.9292 C   0  0  0  0  0  0  0  0  0  0  0  0
   -0.0765    1.2983    1.6242 O   0  0  0  0  0  0  0  0  0  0  0  0
    2.4730   -2.4938    2.2967 H   0  0  0  0  0  0  0  0  0  0  0  0
    4.3100   -3.7204    1.1729 H   0  0  0  0  0  0  0  0  0  0  0  0
    5.1874   -2.9316   -0.9898 H   0  0  0  0  0  0  0  0  0  0  0  0
    4.2286   -0.9160   -2.0518 H   0  0  0  0  0  0  0  0  0  0  0  0
    2.5443    0.9740   -1.9880 H   0  0  0  0  0  0  0  0  0  0  0  0
   -2.7079    3.0338    0.7043 H   0  0  0  0  0  0  0  0  0  0  0  0
   -4.4590    1.3449    1.2501 H   0  0  0  0  0  0  0  0  0  0  0  0
   -5.2871   -3.1784    0.4240 H   0  0  0  0  0  0  0  0  0  0  0  0
   -4.5170   -2.6444   -1.0782 H   0  0  0  0  0  0  0  0  0  0  0  0
   -3.5249   -2.9678    0.3507 H   0  0  0  0  0  0  0  0  0  0  0  0
  1  2  1  0
  1 33  1  0
  1 34  1  0
  1 35  1  0
  2  3  2  0
  2  4  1  0
  4  5  2  0
  4  9  1  0
  5  6  1  0
  5 32  1  0
  6  7  2  0
  6 31  1  0
  7  8  1  0
  7 12  1  0
  8  9  2  0
  8 11  1  0
  9 10  1  0
 12 13  1  0
 13 14  2  0
 13 15  1  0
 15 16  2  0
 15 24  1  0
 16 17  1  0
 16 30  1  0
 17 18  2  0
 17 22  1  0
 18 19  1  0
 18 29  1  0
 19 20  2  0
 19 28  1  0
 20 21  1  0
 20 27  1  0
 21 22  2  0
 21 26  1  0
 22 23  1  0
 23 24  1  0
 24 25  2  0
M  END
$$$$

     RDKit          3D

 35 37  0  0  0  0  0  0  0  0999 V2000
   -4.5169   -1.5151    1.6515 C   0  0  0  0  0  0  0  0  0  0  0  0
   -3.9331   -1.8373    0.3000 C   0  0  0  0  0  0  0  0  0  0  0  0
   -4.1430   -2.8926   -0.2534 O   0  0  0  0  0  0  0  0  0  0  0  0
   -3.0827   -0.7927   -0.3356 C   0  0  0  0  0  0  0  0  0  0  0  0
   -2.6360    0.3455    0.3333 C   0  0  0  0  0  0  0  0  0  0  0  0
   -1.8378    1.2705   -0.3119 C   0  0  0  0  0  0  0  0  0  0  0  0
   -1.4799    1.0634   -1.6390 C   0  0  0  0  0  0  0  0  0  0  0  0
   -1.9290   -0.0576   -2.3261 C   0  0  0  0  0  0  0  0  0  0  0  0
   -2.7216   -0.9768   -1.6713 C   0  0  0  0  0  0  0  0  0  0  0  0
   -3.0783   -1.8597   -2.1802 H   0  0  0  0  0  0  0  0  0  0  0  0
   -1.6541   -0.1907   -3.3608 H   0  0  0  0  0  0  0  0  0  0  0  0
   -0.7114    1.9942   -2.3156 O   0  0  0  0  0  0  0  0  0  0  0  0
    0.5386    2.2756   -1.9077 C   0  0  0  0  0  0  0  0  0  0  0  0
    1.1537    3.1785   -2.3892 O   0  0  0  0  0  0  0  0  0  0  0  0
    1.1341    1.3261   -0.9016 C   0  0  0  0  0  0  0  0  0  0  0  0
    1.6190    0.1257   -1.2847 C   0  0  0  0  0  0  0  0  0  0  0  0
    2.2811   -0.7201   -0.3396 C   0  0  0  0  0  0  0  0  0  0  0  0
    2.8133   -1.9736   -0.6618 C   0  0  0  0  0  0  0  0  0  0  0  0
    3.4589   -2.7196    0.2968 C   0  0  0  0  0  0  0  0  0  0  0  0
    3.5895   -2.2302    1.5950 C   0  0  0  0  0  0  0  0  0  0  0  0
    3.0724   -0.9992    1.9383 C   0  0  0  0  0  0  0  0  0  0  0  0
    2.4133   -0.2401    0.9734 C   0  0  0  0  0  0  0  0  0  0  0  0
    1.9056    0.9566    1.3464 O   0  0  0  0  0  0  0  0  0  0  0  0
    1.2455    1.7822    0.4878 C   0  0  0  0  0  0  0  0  0  0  0  0
    0.7707    2.8002    0.9198 O   0  0  0  0  0  0  0  0  0  0  0  0
    3.1634   -0.6044    2.9373 H   0  0  0  0  0  0  0  0  0  0  0  0
    4.1004   -2.8200    2.3403 H   0  0  0  0  0  0  0  0  0  0  0  0
    3.8683   -3.6854    0.0448 H   0  0  0  0  0  0  0  0  0  0  0  0
    2.7095   -2.3400   -1.6719 H   0  0  0  0  0  0  0  0  0  0  0  0
    1.5320   -0.2097   -2.3093 H   0  0  0  0  0  0  0  0  0  0  0  0
   -1.4952    2.1569    0.2010 H   0  0  0  0  0  0  0  0  0  0  0  0
   -2.8996    0.5203    1.3641 H   0  0  0  0  0  0  0  0  0  0  0  0
   -5.0583   -0.5729    1.6160 H   0  0  0  0  0  0  0  0  0  0  0  0
   -5.1915   -2.3136    1.9494 H   0  0  0  0  0  0  0  0  0  0  0  0
   -3.7202   -1.4322    2.3881 H   0  0  0  0  0  0  0  0  0  0  0  0
  1  2  1  0
  1 33  1  0
  1 34  1  0
  1 35  1  0
  2  3  2  0
  2  4  1  0
  4  5  2  0
  4  9  1  0
  5  6  1  0
  5 32  1  0
  6  7  2  0
  6 31  1  0
  7  8  1  0
  7 12  1  0
  8  9  2  0
  8 11  1  0
  9 10  1  0
 12 13  1  0
 13 14  2  0
 13 15  1  0
 15 16  2  0
 15 24  1  0
 16 17  1  0
 16 30  1  0
 17 18  2  0
 17 22  1  0
 18 19  1  0
 18 29  1  0
 19 20  2  0
 19 28  1  0
 20 21  1  0
 20 27  1  0
 21 22  2  0
 21 26  1  0
 22 23  1  0
 23 24  1  0
 24 25  2  0
M  END
$$$$

     RDKit          3D

 35 37  0  0  0  0  0  0  0  0999 V2000
   -4.5273   -0.6433    2.0185 C   0  0  0  0  0  0  0  0  0  0  0  0
   -3.9889   -1.4715    0.8804 C   0  0  0  0  0  0  0  0  0  0  0  0
   -4.2480   -2.6478    0.7654 O   0  0  0  0  0  0  0  0  0  0  0  0
   -3.1213   -0.7757   -0.1103 C   0  0  0  0  0  0  0  0  0  0  0  0
   -2.8119   -1.4553   -1.2896 C   0  0  0  0  0  0  0  0  0  0  0  0
   -2.0102   -0.8787   -2.2523 C   0  0  0  0  0  0  0  0  0  0  0  0
   -1.4991    0.3952   -2.0366 C   0  0  0  0  0  0  0  0  0  0  0  0
   -1.8032    1.0920   -0.8728 C   0  0  0  0  0  0  0  0  0  0  0  0
   -2.6114    0.5069    0.0829 C   0  0  0  0  0  0  0  0  0  0  0  0
   -2.8332    1.0604    0.9812 H   0  0  0  0  0  0  0  0  0  0  0  0
   -1.4138    2.0890   -0.7302 H   0  0  0  0  0  0  0  0  0  0  0  0
   -0.7268    0.9760   -3.0261 O   0  0  0  0  0  0  0  0  0  0  0  0
    0.5340    1.3689   -2.7721 C   0  0  0  0  0  0  0  0  0  0  0  0
    1.1477    2.0155   -3.5663 O   0  0  0  0  0  0  0  0  0  0  0  0
    1.1443    0.8529   -1.4958 C   0  0  0  0  0  0  0  0  0  0  0  0
    1.5916   -0.4180   -1.4072 C   0  0  0  0  0  0  0  0  0  0  0  0
    2.2793   -0.8608   -0.2334 C   0  0  0  0  0  0  0  0  0  0  0  0
    2.7782   -2.1582   -0.0712 C   0  0  0  0  0  0  0  0  0  0  0  0
    3.4547   -2.5021    1.0761 C   0  0  0  0  0  0  0  0  0  0  0  0
    3.6502   -1.5593    2.0835 C   0  0  0  0  0  0  0  0  0  0  0  0
    3.1667   -0.2753    1.9489 C   0  0  0  0  0  0  0  0  0  0  0  0
    2.4765    0.0788    0.7914 C   0  0  0  0  0  0  0  0  0  0  0  0
    2.0032    1.3421    0.6971 O   0  0  0  0  0  0  0  0  0  0  0  0
    1.3199    1.7989   -0.3887 C   0  0  0  0  0  0  0  0  0  0  0  0
    0.8764    2.9173   -0.3605 O   0  0  0  0  0  0  0  0  0  0  0  0
    3.3079    0.4673    2.7175 H   0  0  0  0  0  0  0  0  0  0  0  0
    4.1854   -1.8360    2.9786 H   0  0  0  0  0  0  0  0  0  0  0  0
    3.8387   -3.5030    1.1975 H   0  0  0  0  0  0  0  0  0  0  0  0
    2.6245   -2.8783   -0.8606 H   0  0  0  0  0  0  0  0  0  0  0  0
    1.4570   -1.1147   -2.2235 H   0  0  0  0  0  0  0  0  0  0  0  0
   -1.7760   -1.3954   -3.1699 H   0  0  0  0  0  0  0  0  0  0  0  0
   -3.2168   -2.4463   -1.4299 H   0  0  0  0  0  0  0  0  0  0  0  0
   -3.7106   -0.3294    2.6655 H   0  0  0  0  0  0  0  0  0  0  0  0
   -5.0311    0.2422    1.6386 H   0  0  0  0  0  0  0  0  0  0  0  0
   -5.2259   -1.2417    2.5975 H   0  0  0  0  0  0  0  0  0  0  0  0
  1  2  1  0
  1 33  1  0
  1 34  1  0
  1 35  1  0
  2  3  2  0
  2  4  1  0
  4  5  2  0
  4  9  1  0
  5  6  1  0
  5 32  1  0
  6  7  2  0
  6 31  1  0
  7  8  1  0
  7 12  1  0
  8  9  2  0
  8 11  1  0
  9 10  1  0
 12 13  1  0
 13 14  2  0
 13 15  1  0
 15 16  2  0
 15 24  1  0
 16 17  1  0
 16 30  1  0
 17 18  2  0
 17 22  1  0
 18 19  1  0
 18 29  1  0
 19 20  2  0
 19 28  1  0
 20 21  1  0
 20 27  1  0
 21 22  2  0
 21 26  1  0
 22 23  1  0
 23 24  1  0
 24 25  2  0
M  END
$$$$

     RDKit          3D

 35 37  0  0  0  0  0  0  0  0999 V2000
   -7.0971    0.2157   -1.3526 C   0  0  0  0  0  0  0  0  0  0  0  0
   -6.3652   -0.1760   -0.0924 C   0  0  0  0  0  0  0  0  0  0  0  0
   -6.9591   -0.4518    0.9262 O   0  0  0  0  0  0  0  0  0  0  0  0
   -4.8807   -0.2084   -0.1549 C   0  0  0  0  0  0  0  0  0  0  0  0
   -4.1872   -0.5384    1.0091 C   0  0  0  0  0  0  0  0  0  0  0  0
   -2.8073   -0.5925    1.0421 C   0  0  0  0  0  0  0  0  0  0  0  0
   -2.0983   -0.3099   -0.1191 C   0  0  0  0  0  0  0  0  0  0  0  0
   -2.7752    0.0207   -1.2937 C   0  0  0  0  0  0  0  0  0  0  0  0
   -4.1513    0.0720   -1.3122 C   0  0  0  0  0  0  0  0  0  0  0  0
   -4.6509    0.3300   -2.2323 H   0  0  0  0  0  0  0  0  0  0  0  0
   -2.1875    0.2332   -2.1728 H   0  0  0  0  0  0  0  0  0  0  0  0
   -0.7280   -0.3270   -0.2558 O   0  0  0  0  0  0  0  0  0  0  0  0
    0.1529   -0.5304    0.7180 C   0  0  0  0  0  0  0  0  0  0  0  0
   -0.0962   -0.7512    1.8788 O   0  0  0  0  0  0  0  0  0  0  0  0
    1.5544   -0.4634    0.2117 C   0  0  0  0  0  0  0  0  0  0  0  0
    2.5512   -0.7809    1.0772 C   0  0  0  0  0  0  0  0  0  0  0  0
    3.9165   -0.7450    0.6755 C   0  0  0  0  0  0  0  0  0  0  0  0
    4.9877   -1.0656    1.5199 C   0  0  0  0  0  0  0  0  0  0  0  0
    6.2787   -1.0086    1.0505 C   0  0  0  0  0  0  0  0  0  0  0  0
    6.5287   -0.6322   -0.2688 C   0  0  0  0  0  0  0  0  0  0  0  0
    5.4928   -0.3118   -1.1201 C   0  0  0  0  0  0  0  0  0  0  0  0
    4.1806   -0.3656   -0.6524 C   0  0  0  0  0  0  0  0  0  0  0  0
    3.1877   -0.0444   -1.5049 O   0  0  0  0  0  0  0  0  0  0  0  0
    1.8564   -0.0592   -1.1667 C   0  0  0  0  0  0  0  0  0  0  0  0
    1.0723    0.2620   -2.0171 O   0  0  0  0  0  0  0  0  0  0  0  0
    5.6693   -0.0184   -2.1423 H   0  0  0  0  0  0  0  0  0  0  0  0
    7.5453   -0.5905   -0.6286 H   0  0  0  0  0  0  0  0  0  0  0  0
    7.1030   -1.2553    1.7015 H   0  0  0  0  0  0  0  0  0  0  0  0
    4.7779   -1.3555    2.5382 H   0  0  0  0  0  0  0  0  0  0  0  0
    2.2949   -1.0683    2.0881 H   0  0  0  0  0  0  0  0  0  0  0  0
   -2.2934   -0.8477    1.9537 H   0  0  0  0  0  0  0  0  0  0  0  0
   -4.7600   -0.7543    1.8987 H   0  0  0  0  0  0  0  0  0  0  0  0
   -8.1668    0.2141   -1.1591 H   0  0  0  0  0  0  0  0  0  0  0  0
   -6.7899    1.2090   -1.6719 H   0  0  0  0  0  0  0  0  0  0  0  0
   -6.8756   -0.4920   -2.1483 H   0  0  0  0  0  0  0  0  0  0  0  0
  1  2  1  0
  1 33  1  0
  1 34  1  0
  1 35  1  0
  2  3  2  0
  2  4  1  0
  4  5  2  0
  4  9  1  0
  5  6  1  0
  5 32  1  0
  6  7  2  0
  6 31  1  0
  7  8  1  0
  7 12  1  0
  8  9  2  0
  8 11  1  0
  9 10  1  0
 12 13  1  0
 13 14  2  0
 13 15  1  0
 15 16  2  0
 15 24  1  0
 16 17  1  0
 16 30  1  0
 17 18  2  0
 17 22  1  0
 18 19  1  0
 18 29  1  0
 19 20  2  0
 19 28  1  0
 20 21  1  0
 20 27  1  0
 21 22  2  0
 21 26  1  0
 22 23  1  0
 23 24  1  0
 24 25  2  0
M  END
$$$$

     RDKit          3D

 35 37  0  0  0  0  0  0  0  0999 V2000
   -7.0376    0.1320   -0.7411 C   0  0  0  0  0  0  0  0  0  0  0  0
   -6.1862   -0.6354    0.2387 C   0  0  0  0  0  0  0  0  0  0  0  0
   -6.6760   -1.3396    1.0930 O   0  0  0  0  0  0  0  0  0  0  0  0
   -4.7110   -0.4937    0.1101 C   0  0  0  0  0  0  0  0  0  0  0  0
   -3.9094   -1.2620    0.9572 C   0  0  0  0  0  0  0  0  0  0  0  0
   -2.5358   -1.1897    0.8895 C   0  0  0  0  0  0  0  0  0  0  0  0
   -1.9382   -0.3368   -0.0337 C   0  0  0  0  0  0  0  0  0  0  0  0
   -2.7176    0.4477   -0.8734 C   0  0  0  0  0  0  0  0  0  0  0  0
   -4.0955    0.3621   -0.8007 C   0  0  0  0  0  0  0  0  0  0  0  0
   -4.6830    0.9790   -1.4616 H   0  0  0  0  0  0  0  0  0  0  0  0
   -2.2523    1.1154   -1.5801 H   0  0  0  0  0  0  0  0  0  0  0  0
   -0.5539   -0.2836   -0.0115 O   0  0  0  0  0  0  0  0  0  0  0  0
    0.1668   -0.0854   -1.1351 C   0  0  0  0  0  0  0  0  0  0  0  0
   -0.2799   -0.0149   -2.2432 O   0  0  0  0  0  0  0  0  0  0  0  0
    1.6158   -0.0269   -0.7920 C   0  0  0  0  0  0  0  0  0  0  0  0
    2.1719   -0.8775    0.1003 C   0  0  0  0  0  0  0  0  0  0  0  0
    3.5779   -0.8463    0.3515 C   0  0  0  0  0  0  0  0  0  0  0  0
    4.2246   -1.7053    1.2485 C   0  0  0  0  0  0  0  0  0  0  0  0
    5.5867   -1.6286    1.4224 C   0  0  0  0  0  0  0  0  0  0  0  0
    6.3327   -0.6968    0.7027 C   0  0  0  0  0  0  0  0  0  0  0  0
    5.7203    0.1601   -0.1868 C   0  0  0  0  0  0  0  0  0  0  0  0
    4.3395    0.0926   -0.3650 C   0  0  0  0  0  0  0  0  0  0  0  0
    3.7701    0.9546   -1.2334 O   0  0  0  0  0  0  0  0  0  0  0  0
    2.4256    0.9807   -1.4923 C   0  0  0  0  0  0  0  0  0  0  0  0
    2.0075    1.8263   -2.2325 O   0  0  0  0  0  0  0  0  0  0  0  0
    6.2814    0.8878   -0.7505 H   0  0  0  0  0  0  0  0  0  0  0  0
    7.4013   -0.6441    0.8432 H   0  0  0  0  0  0  0  0  0  0  0  0
    6.0820   -2.2911    2.1151 H   0  0  0  0  0  0  0  0  0  0  0  0
    3.6357   -2.4243    1.7977 H   0  0  0  0  0  0  0  0  0  0  0  0
    1.5644   -1.6071    0.6172 H   0  0  0  0  0  0  0  0  0  0  0  0
   -1.9119   -1.7815    1.5410 H   0  0  0  0  0  0  0  0  0  0  0  0
   -4.3942   -1.9180    1.6645 H   0  0  0  0  0  0  0  0  0  0  0  0
   -6.8791    1.2008   -0.6143 H   0  0  0  0  0  0  0  0  0  0  0  0
   -6.7772   -0.1412   -1.7610 H   0  0  0  0  0  0  0  0  0  0  0  0
   -8.0847   -0.0971   -0.5608 H   0  0  0  0  0  0  0  0  0  0  0  0
  1  2  1  0
  1 33  1  0
  1 34  1  0
  1 35  1  0
  2  3  2  0
  2  4  1  0
  4  5  2  0
  4  9  1  0
  5  6  1  0
  5 32  1  0
  6  7  2  0
  6 31  1  0
  7  8  1  0
  7 12  1  0
  8  9  2  0
  8 11  1  0
  9 10  1  0
 12 13  1  0
 13 14  2  0
 13 15  1  0
 15 16  2  0
 15 24  1  0
 16 17  1  0
 16 30  1  0
 17 18  2  0
 17 22  1  0
 18 19  1  0
 18 29  1  0
 19 20  2  0
 19 28  1  0
 20 21  1  0
 20 27  1  0
 21 22  2  0
 21 26  1  0
 22 23  1  0
 23 24  1  0
 24 25  2  0
M  END
$$$$

     RDKit          3D

 35 37  0  0  0  0  0  0  0  0999 V2000
   -5.4725   -1.5569    0.8052 C   0  0  0  0  0  0  0  0  0  0  0  0
   -4.2751   -1.7919   -0.0801 C   0  0  0  0  0  0  0  0  0  0  0  0
   -4.0468   -2.8764   -0.5681 O   0  0  0  0  0  0  0  0  0  0  0  0
   -3.3779   -0.6318   -0.3269 C   0  0  0  0  0  0  0  0  0  0  0  0
   -3.5934    0.6392    0.2062 C   0  0  0  0  0  0  0  0  0  0  0  0
   -2.7068    1.6646   -0.0474 C   0  0  0  0  0  0  0  0  0  0  0  0
   -1.5843    1.4320   -0.8333 C   0  0  0  0  0  0  0  0  0  0  0  0
   -1.3713    0.1800   -1.4002 C   0  0  0  0  0  0  0  0  0  0  0  0
   -2.2625   -0.8395   -1.1385 C   0  0  0  0  0  0  0  0  0  0  0  0
   -2.1131   -1.8221   -1.5609 H   0  0  0  0  0  0  0  0  0  0  0  0
   -0.5225    0.0132   -2.0480 H   0  0  0  0  0  0  0  0  0  0  0  0
   -0.7451    2.4926   -1.0836 O   0  0  0  0  0  0  0  0  0  0  0  0
    0.5903    2.3813   -1.0798 C   0  0  0  0  0  0  0  0  0  0  0  0
    1.2660    3.2385   -1.5815 O   0  0  0  0  0  0  0  0  0  0  0  0
    1.2091    1.1836   -0.4262 C   0  0  0  0  0  0  0  0  0  0  0  0
    2.3147    0.6319   -0.9828 C   0  0  0  0  0  0  0  0  0  0  0  0
    2.9515   -0.4912   -0.3765 C   0  0  0  0  0  0  0  0  0  0  0  0
    4.0760   -1.1312   -0.9132 C   0  0  0  0  0  0  0  0  0  0  0  0
    4.6214   -2.2211   -0.2766 C   0  0  0  0  0  0  0  0  0  0  0  0
    4.0562   -2.6980    0.9054 C   0  0  0  0  0  0  0  0  0  0  0  0
    2.9506   -2.0853    1.4557 C   0  0  0  0  0  0  0  0  0  0  0  0
    2.3952   -0.9768    0.8195 C   0  0  0  0  0  0  0  0  0  0  0  0
    1.3244   -0.3858    1.3930 O   0  0  0  0  0  0  0  0  0  0  0  0
    0.7006    0.7046    0.8632 C   0  0  0  0  0  0  0  0  0  0  0  0
   -0.1987    1.2028    1.4907 O   0  0  0  0  0  0  0  0  0  0  0  0
    2.5028   -2.4383    2.3705 H   0  0  0  0  0  0  0  0  0  0  0  0
    4.4894   -3.5553    1.3971 H   0  0  0  0  0  0  0  0  0  0  0  0
    5.4883   -2.7117   -0.6909 H   0  0  0  0  0  0  0  0  0  0  0  0
    4.5021   -0.7522   -1.8296 H   0  0  0  0  0  0  0  0  0  0  0  0
    2.7074    1.0323   -1.9075 H   0  0  0  0  0  0  0  0  0  0  0  0
   -2.8505    2.6464    0.3728 H   0  0  0  0  0  0  0  0  0  0  0  0
   -4.4493    0.8366    0.8311 H   0  0  0  0  0  0  0  0  0  0  0  0
   -6.0318   -2.4837    0.9038 H   0  0  0  0  0  0  0  0  0  0  0  0
   -5.1491   -1.2245    1.7891 H   0  0  0  0  0  0  0  0  0  0  0  0
   -6.1148   -0.7937    0.3718 H   0  0  0  0  0  0  0  0  0  0  0  0
  1  2  1  0
  1 33  1  0
  1 34  1  0
  1 35  1  0
  2  3  2  0
  2  4  1  0
  4  5  2  0
  4  9  1  0
  5  6  1  0
  5 32  1  0
  6  7  2  0
  6 31  1  0
  7  8  1  0
  7 12  1  0
  8  9  2  0
  8 11  1  0
  9 10  1  0
 12 13  1  0
 13 14  2  0
 13 15  1  0
 15 16  2  0
 15 24  1  0
 16 17  1  0
 16 30  1  0
 17 18  2  0
 17 22  1  0
 18 19  1  0
 18 29  1  0
 19 20  2  0
 19 28  1  0
 20 21  1  0
 20 27  1  0
 21 22  2  0
 21 26  1  0
 22 23  1  0
 23 24  1  0
 24 25  2  0
M  END
$$$$

     RDKit          3D

 35 37  0  0  0  0  0  0  0  0999 V2000
   -7.0386   -0.0314    0.1044 C   0  0  0  0  0  0  0  0  0  0  0  0
   -6.1248   -0.9688   -0.6443 C   0  0  0  0  0  0  0  0  0  0  0  0
   -6.5568   -1.8811   -1.3126 O   0  0  0  0  0  0  0  0  0  0  0  0
   -4.6624   -0.7231   -0.5299 C   0  0  0  0  0  0  0  0  0  0  0  0
   -3.8095   -1.4979   -1.3195 C   0  0  0  0  0  0  0  0  0  0  0  0
   -2.4453   -1.3206   -1.2702 C   0  0  0  0  0  0  0  0  0  0  0  0
   -1.9049   -0.3598   -0.4185 C   0  0  0  0  0  0  0  0  0  0  0  0
   -2.7359    0.4100    0.3853 C   0  0  0  0  0  0  0  0  0  0  0  0
   -4.1053    0.2285    0.3208 C   0  0  0  0  0  0  0  0  0  0  0  0
   -4.7324    0.8372    0.9525 H   0  0  0  0  0  0  0  0  0  0  0  0
   -2.3213    1.1510    1.0484 H   0  0  0  0  0  0  0  0  0  0  0  0
   -0.5234   -0.2883   -0.4030 O   0  0  0  0  0  0  0  0  0  0  0  0
    0.1503    0.8449   -0.1061 C   0  0  0  0  0  0  0  0  0  0  0  0
   -0.3472    1.9027    0.1512 O   0  0  0  0  0  0  0  0  0  0  0  0
    1.6126    0.5660   -0.1312 C   0  0  0  0  0  0  0  0  0  0  0  0
    2.1121   -0.6229    0.2807 C   0  0  0  0  0  0  0  0  0  0  0  0
    3.5218   -0.8464    0.3164 C   0  0  0  0  0  0  0  0  0  0  0  0
    4.1063   -2.0457    0.7420 C   0  0  0  0  0  0  0  0  0  0  0  0
    5.4747   -2.1794    0.7665 C   0  0  0  0  0  0  0  0  0  0  0  0
    6.2885   -1.1189    0.3711 C   0  0  0  0  0  0  0  0  0  0  0  0
    5.7383    0.0722   -0.0518 C   0  0  0  0  0  0  0  0  0  0  0  0
    4.3519    0.2144   -0.0849 C   0  0  0  0  0  0  0  0  0  0  0  0
    3.8448    1.3879   -0.5142 O   0  0  0  0  0  0  0  0  0  0  0  0
    2.4995    1.6465   -0.5888 C   0  0  0  0  0  0  0  0  0  0  0  0
    2.1542    2.7023   -1.0372 O   0  0  0  0  0  0  0  0  0  0  0  0
    6.3526    0.9019   -0.3623 H   0  0  0  0  0  0  0  0  0  0  0  0
    7.3616   -1.2309    0.3954 H   0  0  0  0  0  0  0  0  0  0  0  0
    5.9225   -3.1049    1.0937 H   0  0  0  0  0  0  0  0  0  0  0  0
    3.4644   -2.8582    1.0476 H   0  0  0  0  0  0  0  0  0  0  0  0
    1.4499   -1.4124    0.6080 H   0  0  0  0  0  0  0  0  0  0  0  0
   -1.7804   -1.9116   -1.8803 H   0  0  0  0  0  0  0  0  0  0  0  0
   -4.2477   -2.2365   -1.9738 H   0  0  0  0  0  0  0  0  0  0  0  0
   -8.0717   -0.2851   -0.1189 H   0  0  0  0  0  0  0  0  0  0  0  0
   -6.8724   -0.1273    1.1753 H   0  0  0  0  0  0  0  0  0  0  0  0
   -6.8456    0.9979   -0.1885 H   0  0  0  0  0  0  0  0  0  0  0  0
  1  2  1  0
  1 33  1  0
  1 34  1  0
  1 35  1  0
  2  3  2  0
  2  4  1  0
  4  5  2  0
  4  9  1  0
  5  6  1  0
  5 32  1  0
  6  7  2  0
  6 31  1  0
  7  8  1  0
  7 12  1  0
  8  9  2  0
  8 11  1  0
  9 10  1  0
 12 13  1  0
 13 14  2  0
 13 15  1  0
 15 16  2  0
 15 24  1  0
 16 17  1  0
 16 30  1  0
 17 18  2  0
 17 22  1  0
 18 19  1  0
 18 29  1  0
 19 20  2  0
 19 28  1  0
 20 21  1  0
 20 27  1  0
 21 22  2  0
 21 26  1  0
 22 23  1  0
 23 24  1  0
 24 25  2  0
M  END
$$$$
