
     RDKit          3D

 31 33  0  0  0  0  0  0  0  0999 V2000
    2.8418    2.9191    1.3117 C   0  0  0  0  0  0  0  0  0  0  0  0
    2.9123    1.9314    1.7823 H   0  0  0  0  0  0  0  0  0  0  0  0
    2.7566    2.8252   -0.0891 O   0  0  0  0  0  0  0  0  0  0  0  0
    1.6140    2.1325   -0.5325 C   0  0  0  0  0  0  0  0  0  0  0  0
    1.6984    0.6412   -0.3353 C   0  0  0  0  0  0  0  0  0  0  0  0
    2.9139   -0.0135   -0.3259 C   0  0  0  0  0  0  0  0  0  0  0  0
    2.9781   -1.4035   -0.1537 C   0  0  0  0  0  0  0  0  0  0  0  0
    1.8946   -2.1456    0.0007 N   0  0  0  0  0  0  0  0  0  0  0  0
    0.7276   -1.5330   -0.0084 C   0  0  0  0  0  0  0  0  0  0  0  0
    0.5452   -0.1416   -0.1664 C   0  0  0  0  0  0  0  0  0  0  0  0
   -0.8368    0.2018   -0.1166 C   0  0  0  0  0  0  0  0  0  0  0  0
   -1.6459   -0.9097    0.0686 C   0  0  0  0  0  0  0  0  0  0  0  0
   -3.0764   -0.7771    0.1420 C   0  0  0  0  0  0  0  0  0  0  0  0
   -3.9056   -1.6293    0.2924 O   0  0  0  0  0  0  0  0  0  0  0  0
   -3.4981    0.5475    0.0141 O   0  0  0  0  0  0  0  0  0  0  0  0
   -2.6380    1.5644   -0.1559 C   0  0  0  0  0  0  0  0  0  0  0  0
   -1.3649    1.4576   -0.2260 N   0  0  0  0  0  0  0  0  0  0  0  0
   -3.2964    2.8945   -0.2632 C   0  0  0  0  0  0  0  0  0  0  0  0
   -3.8562    3.1003    0.6473 H   0  0  0  0  0  0  0  0  0  0  0  0
   -4.0025    2.8865   -1.0912 H   0  0  0  0  0  0  0  0  0  0  0  0
   -2.5446    3.6604   -0.4205 H   0  0  0  0  0  0  0  0  0  0  0  0
   -0.7741   -2.4018    0.1914 S   0  0  0  0  0  0  0  0  0  0  0  0
    4.2903   -2.1152   -0.1405 C   0  0  0  0  0  0  0  0  0  0  0  0
    4.9176   -1.7342    0.6637 H   0  0  0  0  0  0  0  0  0  0  0  0
    4.1255   -3.1787    0.0024 H   0  0  0  0  0  0  0  0  0  0  0  0
    4.8144   -1.9530   -1.0809 H   0  0  0  0  0  0  0  0  0  0  0  0
    3.8217    0.5561   -0.4536 H   0  0  0  0  0  0  0  0  0  0  0  0
    0.7049    2.5154   -0.0505 H   0  0  0  0  0  0  0  0  0  0  0  0
    1.5423    2.3384   -1.6063 H   0  0  0  0  0  0  0  0  0  0  0  0
    3.7436    3.4882    1.5286 H   0  0  0  0  0  0  0  0  0  0  0  0
    1.9710    3.4431    1.7245 H   0  0  0  0  0  0  0  0  0  0  0  0
  1  2  1  0
  1  3  1  0
  1 30  1  0
  1 31  1  0
  3  4  1  0
  4  5  1  0
  4 28  1  0
  4 29  1  0
  5  6  2  0
  5 10  1  0
  6  7  1  0
  6 27  1  0
  7  8  2  0
  7 23  1  0
  8  9  1  0
  9 10  2  0
  9 22  1  0
 10 11  1  0
 11 12  2  0
 11 17  1  0
 12 13  1  0
 12 22  1  0
 13 14  2  0
 13 15  1  0
 15 16  1  0
 16 17  2  0
 16 18  1  0
 18 19  1  0
 18 20  1  0
 18 21  1  0
 23 24  1  0
 23 25  1  0
 23 26  1  0
M  END
$$$$

     RDKit          3D

 31 33  0  0  0  0  0  0  0  0999 V2000
    2.9506    3.0858   -0.5050 C   0  0  0  0  0  0  0  0  0  0  0  0
    2.1329    3.6864   -0.9221 H   0  0  0  0  0  0  0  0  0  0  0  0
    2.6912    2.7411    0.8336 O   0  0  0  0  0  0  0  0  0  0  0  0
    1.5105    1.9916    0.9971 C   0  0  0  0  0  0  0  0  0  0  0  0
    1.6387    0.5597    0.5465 C   0  0  0  0  0  0  0  0  0  0  0  0
    2.8532   -0.0962    0.5794 C   0  0  0  0  0  0  0  0  0  0  0  0
    2.9569   -1.4335    0.1709 C   0  0  0  0  0  0  0  0  0  0  0  0
    1.9124   -2.1240   -0.2539 N   0  0  0  0  0  0  0  0  0  0  0  0
    0.7467   -1.5099   -0.2887 C   0  0  0  0  0  0  0  0  0  0  0  0
    0.5279   -0.1672    0.0897 C   0  0  0  0  0  0  0  0  0  0  0  0
   -0.8398    0.1956   -0.0797 C   0  0  0  0  0  0  0  0  0  0  0  0
   -1.6041   -0.8564   -0.5640 C   0  0  0  0  0  0  0  0  0  0  0  0
   -3.0136   -0.6966   -0.7991 C   0  0  0  0  0  0  0  0  0  0  0  0
   -3.8070   -1.4980   -1.2048 O   0  0  0  0  0  0  0  0  0  0  0  0
   -3.4634    0.5908   -0.4950 O   0  0  0  0  0  0  0  0  0  0  0  0
   -2.6463    1.5512   -0.0376 C   0  0  0  0  0  0  0  0  0  0  0  0
   -1.3917    1.4177    0.1792 N   0  0  0  0  0  0  0  0  0  0  0  0
   -3.3278    2.8515    0.2169 C   0  0  0  0  0  0  0  0  0  0  0  0
   -3.2057    3.1303    1.2611 H   0  0  0  0  0  0  0  0  0  0  0  0
   -4.3830    2.7635   -0.0229 H   0  0  0  0  0  0  0  0  0  0  0  0
   -2.8730    3.6301   -0.3913 H   0  0  0  0  0  0  0  0  0  0  0  0
   -0.7050   -2.3126   -0.8349 S   0  0  0  0  0  0  0  0  0  0  0  0
    4.2688   -2.1455    0.2015 C   0  0  0  0  0  0  0  0  0  0  0  0
    4.6736   -2.1442    1.2120 H   0  0  0  0  0  0  0  0  0  0  0  0
    4.1346   -3.1694   -0.1333 H   0  0  0  0  0  0  0  0  0  0  0  0
    4.9845   -1.6438   -0.4476 H   0  0  0  0  0  0  0  0  0  0  0  0
    3.7291    0.4311    0.9253 H   0  0  0  0  0  0  0  0  0  0  0  0
    1.3022    2.0008    2.0728 H   0  0  0  0  0  0  0  0  0  0  0  0
    0.6642    2.4647    0.4820 H   0  0  0  0  0  0  0  0  0  0  0  0
    3.8662    3.6738   -0.5006 H   0  0  0  0  0  0  0  0  0  0  0  0
    3.0904    2.1988   -1.1340 H   0  0  0  0  0  0  0  0  0  0  0  0
  1  2  1  0
  1  3  1  0
  1 30  1  0
  1 31  1  0
  3  4  1  0
  4  5  1  0
  4 28  1  0
  4 29  1  0
  5  6  2  0
  5 10  1  0
  6  7  1  0
  6 27  1  0
  7  8  2  0
  7 23  1  0
  8  9  1  0
  9 10  2  0
  9 22  1  0
 10 11  1  0
 11 12  2  0
 11 17  1  0
 12 13  1  0
 12 22  1  0
 13 14  2  0
 13 15  1  0
 15 16  1  0
 16 17  2  0
 16 18  1  0
 18 19  1  0
 18 20  1  0
 18 21  1  0
 23 24  1  0
 23 25  1  0
 23 26  1  0
M  END
$$$$

     RDKit          3D

 31 33  0  0  0  0  0  0  0  0999 V2000
    1.9102    2.7853    1.5467 C   0  0  0  0  0  0  0  0  0  0  0  0
    0.8801    3.1566    1.4871 H   0  0  0  0  0  0  0  0  0  0  0  0
    2.5329    2.8207    0.2868 O   0  0  0  0  0  0  0  0  0  0  0  0
    1.8163    2.1170   -0.7074 C   0  0  0  0  0  0  0  0  0  0  0  0
    1.8526    0.6243   -0.4864 C   0  0  0  0  0  0  0  0  0  0  0  0
    3.0543   -0.0563   -0.4960 C   0  0  0  0  0  0  0  0  0  0  0  0
    3.0989   -1.4382   -0.2626 C   0  0  0  0  0  0  0  0  0  0  0  0
    2.0080   -2.1461   -0.0231 N   0  0  0  0  0  0  0  0  0  0  0  0
    0.8556   -1.5079   -0.0021 C   0  0  0  0  0  0  0  0  0  0  0  0
    0.6931   -0.1210   -0.2205 C   0  0  0  0  0  0  0  0  0  0  0  0
   -0.6787    0.2535   -0.1101 C   0  0  0  0  0  0  0  0  0  0  0  0
   -1.4958   -0.8296    0.1775 C   0  0  0  0  0  0  0  0  0  0  0  0
   -2.9163   -0.6625    0.3358 C   0  0  0  0  0  0  0  0  0  0  0  0
   -3.7483   -1.4889    0.5825 O   0  0  0  0  0  0  0  0  0  0  0  0
   -3.3217    0.6628    0.1705 O   0  0  0  0  0  0  0  0  0  0  0  0
   -2.4560    1.6508   -0.1057 C   0  0  0  0  0  0  0  0  0  0  0  0
   -1.1925    1.5124   -0.2502 N   0  0  0  0  0  0  0  0  0  0  0  0
   -3.0938    2.9885   -0.2389 C   0  0  0  0  0  0  0  0  0  0  0  0
   -2.3396    3.7295   -0.4814 H   0  0  0  0  0  0  0  0  0  0  0  0
   -3.5900    3.2515    0.6936 H   0  0  0  0  0  0  0  0  0  0  0  0
   -3.8515    2.9561   -1.0193 H   0  0  0  0  0  0  0  0  0  0  0  0
   -0.6485   -2.3333    0.3234 S   0  0  0  0  0  0  0  0  0  0  0  0
    4.3942   -2.1800   -0.2785 C   0  0  0  0  0  0  0  0  0  0  0  0
    4.8625   -2.0951   -1.2577 H   0  0  0  0  0  0  0  0  0  0  0  0
    5.0775   -1.7611    0.4580 H   0  0  0  0  0  0  0  0  0  0  0  0
    4.2165   -3.2271   -0.0543 H   0  0  0  0  0  0  0  0  0  0  0  0
    3.9691    0.4861   -0.6788 H   0  0  0  0  0  0  0  0  0  0  0  0
    0.7756    2.4600   -0.7479 H   0  0  0  0  0  0  0  0  0  0  0  0
    2.3208    2.3576   -1.6479 H   0  0  0  0  0  0  0  0  0  0  0  0
    1.8936    1.7705    1.9625 H   0  0  0  0  0  0  0  0  0  0  0  0
    2.4954    3.4313    2.1980 H   0  0  0  0  0  0  0  0  0  0  0  0
  1  2  1  0
  1  3  1  0
  1 30  1  0
  1 31  1  0
  3  4  1  0
  4  5  1  0
  4 28  1  0
  4 29  1  0
  5  6  2  0
  5 10  1  0
  6  7  1  0
  6 27  1  0
  7  8  2  0
  7 23  1  0
  8  9  1  0
  9 10  2  0
  9 22  1  0
 10 11  1  0
 11 12  2  0
 11 17  1  0
 12 13  1  0
 12 22  1  0
 13 14  2  0
 13 15  1  0
 15 16  1  0
 16 17  2  0
 16 18  1  0
 18 19  1  0
 18 20  1  0
 18 21  1  0
 23 24  1  0
 23 25  1  0
 23 26  1  0
M  END
$$$$

     RDKit          3D

 31 33  0  0  0  0  0  0  0  0999 V2000
    2.8928    3.8565    0.5157 C   0  0  0  0  0  0  0  0  0  0  0  0
    2.4339    4.3432   -0.3542 H   0  0  0  0  0  0  0  0  0  0  0  0
    2.9205    2.4620    0.3643 O   0  0  0  0  0  0  0  0  0  0  0  0
    1.6355    1.9062    0.2330 C   0  0  0  0  0  0  0  0  0  0  0  0
    1.7111    0.4198    0.0731 C   0  0  0  0  0  0  0  0  0  0  0  0
    2.9047   -0.2700    0.0619 C   0  0  0  0  0  0  0  0  0  0  0  0
    2.9199   -1.6651   -0.0915 C   0  0  0  0  0  0  0  0  0  0  0  0
    1.8142   -2.3764   -0.2309 N   0  0  0  0  0  0  0  0  0  0  0  0
    0.6667   -1.7269   -0.2216 C   0  0  0  0  0  0  0  0  0  0  0  0
    0.5325   -0.3310   -0.0740 C   0  0  0  0  0  0  0  0  0  0  0  0
   -0.8352    0.0615   -0.1043 C   0  0  0  0  0  0  0  0  0  0  0  0
   -1.6870   -1.0212   -0.2710 C   0  0  0  0  0  0  0  0  0  0  0  0
   -3.1117   -0.8351   -0.3271 C   0  0  0  0  0  0  0  0  0  0  0  0
   -3.9760   -1.6539   -0.4654 O   0  0  0  0  0  0  0  0  0  0  0  0
   -3.4805    0.5057   -0.1969 O   0  0  0  0  0  0  0  0  0  0  0  0
   -2.5809    1.4899   -0.0382 C   0  0  0  0  0  0  0  0  0  0  0  0
   -1.3115    1.3373    0.0127 N   0  0  0  0  0  0  0  0  0  0  0  0
   -3.1897    2.8429    0.0813 C   0  0  0  0  0  0  0  0  0  0  0  0
   -3.7749    3.0608   -0.8100 H   0  0  0  0  0  0  0  0  0  0  0  0
   -2.4066    3.5831    0.2045 H   0  0  0  0  0  0  0  0  0  0  0  0
   -3.8648    2.8659    0.9346 H   0  0  0  0  0  0  0  0  0  0  0  0
   -0.8679   -2.5432   -0.3959 S   0  0  0  0  0  0  0  0  0  0  0  0
    4.2092   -2.4177   -0.1032 C   0  0  0  0  0  0  0  0  0  0  0  0
    4.7414   -2.2641    0.8338 H   0  0  0  0  0  0  0  0  0  0  0  0
    4.0116   -3.4767   -0.2372 H   0  0  0  0  0  0  0  0  0  0  0  0
    4.8444   -2.0617   -0.9122 H   0  0  0  0  0  0  0  0  0  0  0  0
    3.8285    0.2735    0.1723 H   0  0  0  0  0  0  0  0  0  0  0  0
    1.0172    2.1397    1.1154 H   0  0  0  0  0  0  0  0  0  0  0  0
    1.1128    2.3332   -0.6388 H   0  0  0  0  0  0  0  0  0  0  0  0
    2.3365    4.1492    1.4151 H   0  0  0  0  0  0  0  0  0  0  0  0
    3.9275    4.1799    0.6081 H   0  0  0  0  0  0  0  0  0  0  0  0
  1  2  1  0
  1  3  1  0
  1 30  1  0
  1 31  1  0
  3  4  1  0
  4  5  1  0
  4 28  1  0
  4 29  1  0
  5  6  2  0
  5 10  1  0
  6  7  1  0
  6 27  1  0
  7  8  2  0
  7 23  1  0
  8  9  1  0
  9 10  2  0
  9 22  1  0
 10 11  1  0
 11 12  2  0
 11 17  1  0
 12 13  1  0
 12 22  1  0
 13 14  2  0
 13 15  1  0
 15 16  1  0
 16 17  2  0
 16 18  1  0
 18 19  1  0
 18 20  1  0
 18 21  1  0
 23 24  1  0
 23 25  1  0
 23 26  1  0
M  END
$$$$

     RDKit          3D

 31 33  0  0  0  0  0  0  0  0999 V2000
    2.6814    2.7281    1.5247 C   0  0  0  0  0  0  0  0  0  0  0  0
    2.5001    3.3104    2.4259 H   0  0  0  0  0  0  0  0  0  0  0  0
    1.5049    2.8090    0.7619 O   0  0  0  0  0  0  0  0  0  0  0  0
    1.5875    2.1897   -0.5052 C   0  0  0  0  0  0  0  0  0  0  0  0
    1.6955    0.6895   -0.3988 C   0  0  0  0  0  0  0  0  0  0  0  0
    2.9145    0.0413   -0.4363 C   0  0  0  0  0  0  0  0  0  0  0  0
    2.9977   -1.3468   -0.2427 C   0  0  0  0  0  0  0  0  0  0  0  0
    1.9310   -2.0900   -0.0105 N   0  0  0  0  0  0  0  0  0  0  0  0
    0.7585   -1.4868    0.0169 C   0  0  0  0  0  0  0  0  0  0  0  0
    0.5579   -0.1025   -0.1774 C   0  0  0  0  0  0  0  0  0  0  0  0
   -0.8271    0.2281   -0.1075 C   0  0  0  0  0  0  0  0  0  0  0  0
   -1.6156   -0.8825    0.1537 C   0  0  0  0  0  0  0  0  0  0  0  0
   -3.0443   -0.7591    0.2784 C   0  0  0  0  0  0  0  0  0  0  0  0
   -3.8550   -1.6124    0.5067 O   0  0  0  0  0  0  0  0  0  0  0  0
   -3.4857    0.5512    0.1028 O   0  0  0  0  0  0  0  0  0  0  0  0
   -2.6453    1.5640   -0.1733 C   0  0  0  0  0  0  0  0  0  0  0  0
   -1.3762    1.4640   -0.2879 N   0  0  0  0  0  0  0  0  0  0  0  0
   -3.3229    2.8762   -0.3503 C   0  0  0  0  0  0  0  0  0  0  0  0
   -3.9445    3.0866    0.5173 H   0  0  0  0  0  0  0  0  0  0  0  0
   -3.9723    2.8390   -1.2235 H   0  0  0  0  0  0  0  0  0  0  0  0
   -2.5758    3.6524   -0.4754 H   0  0  0  0  0  0  0  0  0  0  0  0
   -0.7242   -2.3608    0.3063 S   0  0  0  0  0  0  0  0  0  0  0  0
    4.3148   -2.0495   -0.2807 C   0  0  0  0  0  0  0  0  0  0  0  0
    4.7843   -1.9150   -1.2539 H   0  0  0  0  0  0  0  0  0  0  0  0
    4.9837   -1.6413    0.4752 H   0  0  0  0  0  0  0  0  0  0  0  0
    4.1658   -3.1088   -0.0961 H   0  0  0  0  0  0  0  0  0  0  0  0
    3.8210    0.6010   -0.6140 H   0  0  0  0  0  0  0  0  0  0  0  0
    0.6570    2.4594   -1.0077 H   0  0  0  0  0  0  0  0  0  0  0  0
    2.4512    2.5836   -1.0636 H   0  0  0  0  0  0  0  0  0  0  0  0
    2.9205    1.6953    1.8055 H   0  0  0  0  0  0  0  0  0  0  0  0
    3.5358    3.1543    0.9828 H   0  0  0  0  0  0  0  0  0  0  0  0
  1  2  1  0
  1  3  1  0
  1 30  1  0
  1 31  1  0
  3  4  1  0
  4  5  1  0
  4 28  1  0
  4 29  1  0
  5  6  2  0
  5 10  1  0
  6  7  1  0
  6 27  1  0
  7  8  2  0
  7 23  1  0
  8  9  1  0
  9 10  2  0
  9 22  1  0
 10 11  1  0
 11 12  2  0
 11 17  1  0
 12 13  1  0
 12 22  1  0
 13 14  2  0
 13 15  1  0
 15 16  1  0
 16 17  2  0
 16 18  1  0
 18 19  1  0
 18 20  1  0
 18 21  1  0
 23 24  1  0
 23 25  1  0
 23 26  1  0
M  END
$$$$

     RDKit          3D

 31 33  0  0  0  0  0  0  0  0999 V2000
    2.6801    2.7365    1.5256 C   0  0  0  0  0  0  0  0  0  0  0  0
    2.4976    3.3178    2.4272 H   0  0  0  0  0  0  0  0  0  0  0  0
    1.4998    2.8065    0.7678 O   0  0  0  0  0  0  0  0  0  0  0  0
    1.5822    2.1881   -0.5001 C   0  0  0  0  0  0  0  0  0  0  0  0
    1.6934    0.6882   -0.3924 C   0  0  0  0  0  0  0  0  0  0  0  0
    2.9137    0.0420   -0.4237 C   0  0  0  0  0  0  0  0  0  0  0  0
    2.9986   -1.3452   -0.2246 C   0  0  0  0  0  0  0  0  0  0  0  0
    1.9328   -2.0890    0.0101 N   0  0  0  0  0  0  0  0  0  0  0  0
    0.7591   -1.4878    0.0313 C   0  0  0  0  0  0  0  0  0  0  0  0
    0.5565   -0.1054   -0.1731 C   0  0  0  0  0  0  0  0  0  0  0  0
   -0.8296    0.2231   -0.1123 C   0  0  0  0  0  0  0  0  0  0  0  0
   -1.6168   -0.8868    0.1575 C   0  0  0  0  0  0  0  0  0  0  0  0
   -3.0453   -0.7645    0.2777 C   0  0  0  0  0  0  0  0  0  0  0  0
   -3.8565   -1.6153    0.5137 O   0  0  0  0  0  0  0  0  0  0  0  0
   -3.4879    0.5445    0.0854 O   0  0  0  0  0  0  0  0  0  0  0  0
   -2.6499    1.5545   -0.2018 C   0  0  0  0  0  0  0  0  0  0  0  0
   -1.3796    1.4545   -0.3113 N   0  0  0  0  0  0  0  0  0  0  0  0
   -3.3280    2.8668   -0.3912 C   0  0  0  0  0  0  0  0  0  0  0  0
   -2.9958    3.5592    0.3796 H   0  0  0  0  0  0  0  0  0  0  0  0
   -4.4041    2.7362   -0.3312 H   0  0  0  0  0  0  0  0  0  0  0  0
   -3.0530    3.2868   -1.3555 H   0  0  0  0  0  0  0  0  0  0  0  0
   -0.7227   -2.3621    0.3251 S   0  0  0  0  0  0  0  0  0  0  0  0
    4.3168   -2.0462   -0.2574 C   0  0  0  0  0  0  0  0  0  0  0  0
    4.9762   -1.6474    0.5117 H   0  0  0  0  0  0  0  0  0  0  0  0
    4.1669   -3.1078   -0.0874 H   0  0  0  0  0  0  0  0  0  0  0  0
    4.7974   -1.8985   -1.2230 H   0  0  0  0  0  0  0  0  0  0  0  0
    3.8199    0.6027   -0.6005 H   0  0  0  0  0  0  0  0  0  0  0  0
    0.6502    2.4559   -1.0007 H   0  0  0  0  0  0  0  0  0  0  0  0
    2.4444    2.5841   -1.0591 H   0  0  0  0  0  0  0  0  0  0  0  0
    2.9296    1.7061    1.8062 H   0  0  0  0  0  0  0  0  0  0  0  0
    3.5283    3.1700    0.9798 H   0  0  0  0  0  0  0  0  0  0  0  0
  1  2  1  0
  1  3  1  0
  1 30  1  0
  1 31  1  0
  3  4  1  0
  4  5  1  0
  4 28  1  0
  4 29  1  0
  5  6  2  0
  5 10  1  0
  6  7  1  0
  6 27  1  0
  7  8  2  0
  7 23  1  0
  8  9  1  0
  9 10  2  0
  9 22  1  0
 10 11  1  0
 11 12  2  0
 11 17  1  0
 12 13  1  0
 12 22  1  0
 13 14  2  0
 13 15  1  0
 15 16  1  0
 16 17  2  0
 16 18  1  0
 18 19  1  0
 18 20  1  0
 18 21  1  0
 23 24  1  0
 23 25  1  0
 23 26  1  0
M  END
$$$$

     RDKit          3D

 31 33  0  0  0  0  0  0  0  0999 V2000
    1.6038    3.6877    1.1804 C   0  0  0  0  0  0  0  0  0  0  0  0
    1.5560    3.8936    2.2477 H   0  0  0  0  0  0  0  0  0  0  0  0
    1.8483    2.3133    1.0513 O   0  0  0  0  0  0  0  0  0  0  0  0
    1.9408    1.8954   -0.2965 C   0  0  0  0  0  0  0  0  0  0  0  0
    1.9289    0.3942   -0.3057 C   0  0  0  0  0  0  0  0  0  0  0  0
    3.0855   -0.3511   -0.3953 C   0  0  0  0  0  0  0  0  0  0  0  0
    3.0406   -1.7533   -0.3349 C   0  0  0  0  0  0  0  0  0  0  0  0
    1.9086   -2.4165   -0.1822 N   0  0  0  0  0  0  0  0  0  0  0  0
    0.7953   -1.7154   -0.0958 C   0  0  0  0  0  0  0  0  0  0  0  0
    0.7219   -0.3071   -0.1597 C   0  0  0  0  0  0  0  0  0  0  0  0
   -0.6264    0.1415   -0.0506 C   0  0  0  0  0  0  0  0  0  0  0  0
   -1.5148   -0.9121    0.1083 C   0  0  0  0  0  0  0  0  0  0  0  0
   -2.9260   -0.6725    0.2551 C   0  0  0  0  0  0  0  0  0  0  0  0
   -3.8130   -1.4648    0.4050 O   0  0  0  0  0  0  0  0  0  0  0  0
   -3.2456    0.6843    0.2098 O   0  0  0  0  0  0  0  0  0  0  0  0
   -2.3155    1.6374    0.0287 C   0  0  0  0  0  0  0  0  0  0  0  0
   -1.0602    1.4356   -0.1044 N   0  0  0  0  0  0  0  0  0  0  0  0
   -2.8754    3.0161   -0.0079 C   0  0  0  0  0  0  0  0  0  0  0  0
   -3.3258    3.2511    0.9549 H   0  0  0  0  0  0  0  0  0  0  0  0
   -3.6562    3.0759   -0.7634 H   0  0  0  0  0  0  0  0  0  0  0  0
   -2.0847    3.7254   -0.2274 H   0  0  0  0  0  0  0  0  0  0  0  0
   -0.7629   -2.4730    0.1139 S   0  0  0  0  0  0  0  0  0  0  0  0
    4.2898   -2.5655   -0.4319 C   0  0  0  0  0  0  0  0  0  0  0  0
    4.0430   -3.6205   -0.3667 H   0  0  0  0  0  0  0  0  0  0  0  0
    4.7946   -2.3690   -1.3762 H   0  0  0  0  0  0  0  0  0  0  0  0
    4.9713   -2.3033    0.3754 H   0  0  0  0  0  0  0  0  0  0  0  0
    4.0395    0.1417   -0.5044 H   0  0  0  0  0  0  0  0  0  0  0  0
    1.0802    2.2749   -0.8646 H   0  0  0  0  0  0  0  0  0  0  0  0
    2.8703    2.2767   -0.7491 H   0  0  0  0  0  0  0  0  0  0  0  0
    2.4094    4.2820    0.7298 H   0  0  0  0  0  0  0  0  0  0  0  0
    0.6527    3.9647    0.7096 H   0  0  0  0  0  0  0  0  0  0  0  0
  1  2  1  0
  1  3  1  0
  1 30  1  0
  1 31  1  0
  3  4  1  0
  4  5  1  0
  4 28  1  0
  4 29  1  0
  5  6  2  0
  5 10  1  0
  6  7  1  0
  6 27  1  0
  7  8  2  0
  7 23  1  0
  8  9  1  0
  9 10  2  0
  9 22  1  0
 10 11  1  0
 11 12  2  0
 11 17  1  0
 12 13  1  0
 12 22  1  0
 13 14  2  0
 13 15  1  0
 15 16  1  0
 16 17  2  0
 16 18  1  0
 18 19  1  0
 18 20  1  0
 18 21  1  0
 23 24  1  0
 23 25  1  0
 23 26  1  0
M  END
$$$$

     RDKit          3D

 31 33  0  0  0  0  0  0  0  0999 V2000
    1.7201    3.7210    1.1016 C   0  0  0  0  0  0  0  0  0  0  0  0
    2.5021    4.2892    0.5813 H   0  0  0  0  0  0  0  0  0  0  0  0
    1.9336    2.3397    0.9936 O   0  0  0  0  0  0  0  0  0  0  0  0
    1.9265    1.8859   -0.3462 C   0  0  0  0  0  0  0  0  0  0  0  0
    1.9081    0.3848   -0.3135 C   0  0  0  0  0  0  0  0  0  0  0  0
    3.0641   -0.3632   -0.3898 C   0  0  0  0  0  0  0  0  0  0  0  0
    3.0197   -1.7631   -0.2909 C   0  0  0  0  0  0  0  0  0  0  0  0
    1.8881   -2.4216   -0.1162 N   0  0  0  0  0  0  0  0  0  0  0  0
    0.7756   -1.7180   -0.0421 C   0  0  0  0  0  0  0  0  0  0  0  0
    0.7019   -0.3114   -0.1402 C   0  0  0  0  0  0  0  0  0  0  0  0
   -0.6462    0.1391   -0.0323 C   0  0  0  0  0  0  0  0  0  0  0  0
   -1.5333   -0.9107    0.1561 C   0  0  0  0  0  0  0  0  0  0  0  0
   -2.9439   -0.6684    0.3046 C   0  0  0  0  0  0  0  0  0  0  0  0
   -3.8295   -1.4578    0.4763 O   0  0  0  0  0  0  0  0  0  0  0  0
   -3.2646    0.6869    0.2308 O   0  0  0  0  0  0  0  0  0  0  0  0
   -2.3359    1.6361    0.0254 C   0  0  0  0  0  0  0  0  0  0  0  0
   -1.0811    1.4318   -0.1101 N   0  0  0  0  0  0  0  0  0  0  0  0
   -2.8960    3.0137   -0.0374 C   0  0  0  0  0  0  0  0  0  0  0  0
   -3.6678    3.0620   -0.8030 H   0  0  0  0  0  0  0  0  0  0  0  0
   -2.1033    3.7201   -0.2585 H   0  0  0  0  0  0  0  0  0  0  0  0
   -3.3582    3.2620    0.9163 H   0  0  0  0  0  0  0  0  0  0  0  0
   -0.7811   -2.4707    0.1943 S   0  0  0  0  0  0  0  0  0  0  0  0
    4.2682   -2.5779   -0.3718 C   0  0  0  0  0  0  0  0  0  0  0  0
    4.0215   -3.6308   -0.2784 H   0  0  0  0  0  0  0  0  0  0  0  0
    4.7698   -2.4061   -1.3226 H   0  0  0  0  0  0  0  0  0  0  0  0
    4.9527   -2.2952    0.4260 H   0  0  0  0  0  0  0  0  0  0  0  0
    4.0171    0.1266   -0.5180 H   0  0  0  0  0  0  0  0  0  0  0  0
    1.0299    2.2565   -0.8612 H   0  0  0  0  0  0  0  0  0  0  0  0
    2.8240    2.2484   -0.8732 H   0  0  0  0  0  0  0  0  0  0  0  0
    0.7436    4.0029    0.6889 H   0  0  0  0  0  0  0  0  0  0  0  0
    1.7486    3.9556    2.1637 H   0  0  0  0  0  0  0  0  0  0  0  0
  1  2  1  0
  1  3  1  0
  1 30  1  0
  1 31  1  0
  3  4  1  0
  4  5  1  0
  4 28  1  0
  4 29  1  0
  5  6  2  0
  5 10  1  0
  6  7  1  0
  6 27  1  0
  7  8  2  0
  7 23  1  0
  8  9  1  0
  9 10  2  0
  9 22  1  0
 10 11  1  0
 11 12  2  0
 11 17  1  0
 12 13  1  0
 12 22  1  0
 13 14  2  0
 13 15  1  0
 15 16  1  0
 16 17  2  0
 16 18  1  0
 18 19  1  0
 18 20  1  0
 18 21  1  0
 23 24  1  0
 23 25  1  0
 23 26  1  0
M  END
$$$$

     RDKit          3D

 31 33  0  0  0  0  0  0  0  0999 V2000
    2.0389    3.8998   -0.1191 C   0  0  0  0  0  0  0  0  0  0  0  0
    2.6965    4.2514    0.6864 H   0  0  0  0  0  0  0  0  0  0  0  0
    2.1750    2.5197   -0.3242 O   0  0  0  0  0  0  0  0  0  0  0  0
    1.8259    1.7606    0.8186 C   0  0  0  0  0  0  0  0  0  0  0  0
    1.8293    0.3125    0.4190 C   0  0  0  0  0  0  0  0  0  0  0  0
    2.9937   -0.4271    0.4028 C   0  0  0  0  0  0  0  0  0  0  0  0
    2.9890   -1.7635   -0.0259 C   0  0  0  0  0  0  0  0  0  0  0  0
    1.8866   -2.3684   -0.4314 N   0  0  0  0  0  0  0  0  0  0  0  0
    0.7677   -1.6721   -0.4228 C   0  0  0  0  0  0  0  0  0  0  0  0
    0.6548   -0.3269   -0.0070 C   0  0  0  0  0  0  0  0  0  0  0  0
   -0.6923    0.1285   -0.1146 C   0  0  0  0  0  0  0  0  0  0  0  0
   -1.5383   -0.8544   -0.6068 C   0  0  0  0  0  0  0  0  0  0  0  0
   -2.9396   -0.5934   -0.8045 C   0  0  0  0  0  0  0  0  0  0  0  0
   -3.7909   -1.3279   -1.2198 O   0  0  0  0  0  0  0  0  0  0  0  0
   -3.2974    0.7067   -0.4478 O   0  0  0  0  0  0  0  0  0  0  0  0
   -2.4086    1.5903    0.0355 C   0  0  0  0  0  0  0  0  0  0  0  0
   -1.1625    1.3679    0.2172 N   0  0  0  0  0  0  0  0  0  0  0  0
   -3.0018    2.9157    0.3622 C   0  0  0  0  0  0  0  0  0  0  0  0
   -2.2418    3.5593    0.7919 H   0  0  0  0  0  0  0  0  0  0  0  0
   -3.8256    2.7870    1.0613 H   0  0  0  0  0  0  0  0  0  0  0  0
   -3.4023    3.3681   -0.5433 H   0  0  0  0  0  0  0  0  0  0  0  0
   -0.7497   -2.3591   -0.9445 S   0  0  0  0  0  0  0  0  0  0  0  0
    4.2465   -2.5678   -0.0486 C   0  0  0  0  0  0  0  0  0  0  0  0
    4.7090   -2.5760    0.9366 H   0  0  0  0  0  0  0  0  0  0  0  0
    4.0220   -3.5851   -0.3537 H   0  0  0  0  0  0  0  0  0  0  0  0
    4.9557   -2.1311   -0.7500 H   0  0  0  0  0  0  0  0  0  0  0  0
    3.9225    0.0250    0.7146 H   0  0  0  0  0  0  0  0  0  0  0  0
    2.5594    1.9348    1.6230 H   0  0  0  0  0  0  0  0  0  0  0  0
    0.8272    2.0490    1.1705 H   0  0  0  0  0  0  0  0  0  0  0  0
    2.3217    4.3806   -1.0532 H   0  0  0  0  0  0  0  0  0  0  0  0
    1.0037    4.1632    0.1308 H   0  0  0  0  0  0  0  0  0  0  0  0
  1  2  1  0
  1  3  1  0
  1 30  1  0
  1 31  1  0
  3  4  1  0
  4  5  1  0
  4 28  1  0
  4 29  1  0
  5  6  2  0
  5 10  1  0
  6  7  1  0
  6 27  1  0
  7  8  2  0
  7 23  1  0
  8  9  1  0
  9 10  2  0
  9 22  1  0
 10 11  1  0
 11 12  2  0
 11 17  1  0
 12 13  1  0
 12 22  1  0
 13 14  2  0
 13 15  1  0
 15 16  1  0
 16 17  2  0
 16 18  1  0
 18 19  1  0
 18 20  1  0
 18 21  1  0
 23 24  1  0
 23 25  1  0
 23 26  1  0
M  END
$$$$

     RDKit          3D

 31 33  0  0  0  0  0  0  0  0999 V2000
    1.8585    3.8969   -0.2183 C   0  0  0  0  0  0  0  0  0  0  0  0
    0.8353    4.1106    0.1145 H   0  0  0  0  0  0  0  0  0  0  0  0
    2.0524    2.5210   -0.4049 O   0  0  0  0  0  0  0  0  0  0  0  0
    1.8576    1.7741    0.7813 C   0  0  0  0  0  0  0  0  0  0  0  0
    1.8657    0.3203    0.4044 C   0  0  0  0  0  0  0  0  0  0  0  0
    3.0311   -0.4169    0.3787 C   0  0  0  0  0  0  0  0  0  0  0  0
    3.0228   -1.7573   -0.0383 C   0  0  0  0  0  0  0  0  0  0  0  0
    1.9167   -2.3676   -0.4248 N   0  0  0  0  0  0  0  0  0  0  0  0
    0.7959   -1.6741   -0.4047 C   0  0  0  0  0  0  0  0  0  0  0  0
    0.6864   -0.3265    0.0033 C   0  0  0  0  0  0  0  0  0  0  0  0
   -0.6630    0.1254   -0.0835 C   0  0  0  0  0  0  0  0  0  0  0  0
   -1.5149   -0.8625   -0.5557 C   0  0  0  0  0  0  0  0  0  0  0  0
   -2.9200   -0.6059   -0.7299 C   0  0  0  0  0  0  0  0  0  0  0  0
   -3.7768   -1.3445   -1.1262 O   0  0  0  0  0  0  0  0  0  0  0  0
   -3.2745    0.6953   -0.3737 O   0  0  0  0  0  0  0  0  0  0  0  0
   -2.3799    1.5827    0.0922 C   0  0  0  0  0  0  0  0  0  0  0  0
   -1.1304    1.3644    0.2530 N   0  0  0  0  0  0  0  0  0  0  0  0
   -2.9721    2.9064    0.4277 C   0  0  0  0  0  0  0  0  0  0  0  0
   -2.2021    3.5611    0.8211 H   0  0  0  0  0  0  0  0  0  0  0  0
   -3.7662    2.7779    1.1607 H   0  0  0  0  0  0  0  0  0  0  0  0
   -3.4128    3.3451   -0.4656 H   0  0  0  0  0  0  0  0  0  0  0  0
   -0.7280   -2.3673   -0.8978 S   0  0  0  0  0  0  0  0  0  0  0  0
    4.2816   -2.5594   -0.0698 C   0  0  0  0  0  0  0  0  0  0  0  0
    4.7269   -2.6013    0.9227 H   0  0  0  0  0  0  0  0  0  0  0  0
    4.0624   -3.5663   -0.4107 H   0  0  0  0  0  0  0  0  0  0  0  0
    5.0024   -2.0989   -0.7432 H   0  0  0  0  0  0  0  0  0  0  0  0
    3.9640    0.0389    0.6727 H   0  0  0  0  0  0  0  0  0  0  0  0
    2.6667    1.9885    1.4985 H   0  0  0  0  0  0  0  0  0  0  0  0
    0.8926    2.0361    1.2345 H   0  0  0  0  0  0  0  0  0  0  0  0
    2.5624    4.3041    0.5192 H   0  0  0  0  0  0  0  0  0  0  0  0
    2.0336    4.3671   -1.1837 H   0  0  0  0  0  0  0  0  0  0  0  0
  1  2  1  0
  1  3  1  0
  1 30  1  0
  1 31  1  0
  3  4  1  0
  4  5  1  0
  4 28  1  0
  4 29  1  0
  5  6  2  0
  5 10  1  0
  6  7  1  0
  6 27  1  0
  7  8  2  0
  7 23  1  0
  8  9  1  0
  9 10  2  0
  9 22  1  0
 10 11  1  0
 11 12  2  0
 11 17  1  0
 12 13  1  0
 12 22  1  0
 13 14  2  0
 13 15  1  0
 15 16  1  0
 16 17  2  0
 16 18  1  0
 18 19  1  0
 18 20  1  0
 18 21  1  0
 23 24  1  0
 23 25  1  0
 23 26  1  0
M  END
$$$$

     RDKit          3D

 31 33  0  0  0  0  0  0  0  0999 V2000
    1.5567    3.8568   -0.2355 C   0  0  0  0  0  0  0  0  0  0  0  0
    2.3538    4.3353    0.3486 H   0  0  0  0  0  0  0  0  0  0  0  0
    1.8273    2.4986   -0.4541 O   0  0  0  0  0  0  0  0  0  0  0  0
    1.9229    1.7578    0.7459 C   0  0  0  0  0  0  0  0  0  0  0  0
    1.9213    0.3011    0.3840 C   0  0  0  0  0  0  0  0  0  0  0  0
    3.0731   -0.4565    0.3572 C   0  0  0  0  0  0  0  0  0  0  0  0
    3.0359   -1.8018   -0.0442 C   0  0  0  0  0  0  0  0  0  0  0  0
    1.9171   -2.3956   -0.4189 N   0  0  0  0  0  0  0  0  0  0  0  0
    0.8085   -1.6819   -0.3973 C   0  0  0  0  0  0  0  0  0  0  0  0
    0.7277   -0.3307    0.0021 C   0  0  0  0  0  0  0  0  0  0  0  0
   -0.6126    0.1477   -0.0725 C   0  0  0  0  0  0  0  0  0  0  0  0
   -1.4880   -0.8254   -0.5331 C   0  0  0  0  0  0  0  0  0  0  0  0
   -2.8876   -0.5393   -0.6993 C   0  0  0  0  0  0  0  0  0  0  0  0
   -3.7647   -1.2597   -1.0850 O   0  0  0  0  0  0  0  0  0  0  0  0
   -3.2096    0.7732   -0.3488 O   0  0  0  0  0  0  0  0  0  0  0  0
   -2.2943    1.6422    0.1094 C   0  0  0  0  0  0  0  0  0  0  0  0
   -1.0490    1.3958    0.2652 N   0  0  0  0  0  0  0  0  0  0  0  0
   -2.8550    2.9819    0.4458 C   0  0  0  0  0  0  0  0  0  0  0  0
   -2.3111    3.7528   -0.0950 H   0  0  0  0  0  0  0  0  0  0  0  0
   -2.7393    3.1720    1.5110 H   0  0  0  0  0  0  0  0  0  0  0  0
   -3.9076    3.0131    0.1812 H   0  0  0  0  0  0  0  0  0  0  0  0
   -0.7329   -2.3476   -0.8737 S   0  0  0  0  0  0  0  0  0  0  0  0
    4.2797   -2.6272   -0.0752 C   0  0  0  0  0  0  0  0  0  0  0  0
    4.0388   -3.6350   -0.3983 H   0  0  0  0  0  0  0  0  0  0  0  0
    5.0020   -2.1908   -0.7630 H   0  0  0  0  0  0  0  0  0  0  0  0
    4.7343   -2.6619    0.9134 H   0  0  0  0  0  0  0  0  0  0  0  0
    4.0175   -0.0163    0.6385 H   0  0  0  0  0  0  0  0  0  0  0  0
    2.8481    2.0214    1.2832 H   0  0  0  0  0  0  0  0  0  0  0  0
    1.0583    1.9776    1.3881 H   0  0  0  0  0  0  0  0  0  0  0  0
    1.4999    4.3220   -1.2175 H   0  0  0  0  0  0  0  0  0  0  0  0
    0.6034    3.9879    0.2911 H   0  0  0  0  0  0  0  0  0  0  0  0
  1  2  1  0
  1  3  1  0
  1 30  1  0
  1 31  1  0
  3  4  1  0
  4  5  1  0
  4 28  1  0
  4 29  1  0
  5  6  2  0
  5 10  1  0
  6  7  1  0
  6 27  1  0
  7  8  2  0
  7 23  1  0
  8  9  1  0
  9 10  2  0
  9 22  1  0
 10 11  1  0
 11 12  2  0
 11 17  1  0
 12 13  1  0
 12 22  1  0
 13 14  2  0
 13 15  1  0
 15 16  1  0
 16 17  2  0
 16 18  1  0
 18 19  1  0
 18 20  1  0
 18 21  1  0
 23 24  1  0
 23 25  1  0
 23 26  1  0
M  END
$$$$
